BEGIN Configuration File: /Users/yash/Projects/wsc-noc-dvfs/final_paper_sims/flatfly/flatfly_hw_reactive_inj0.4_cap0.7/config.cfg

// Final Paper Simulation Config
// Topology: flatfly, Policy: hw_reactive
// Injection Rate: 0.4, Power Cap: 0.7W

// VC Configuration
read_request_begin_vc  = 0;
read_request_end_vc    = 5;
write_reply_begin_vc   = 2;
write_reply_end_vc     = 7;
read_reply_begin_vc    = 8;
read_reply_end_vc      = 12;
write_request_begin_vc = 10;
write_request_end_vc   = 15;
num_vcs     = 16;
vc_buf_size = 8;
wait_for_tail_credit = 0;
vc_allocator = max_size;
sw_allocator = max_size;
alloc_iters  = 2;
credit_delay   = 2;
routing_delay  = 0;
vc_alloc_delay = 1;
sw_alloc_delay = 1;
st_final_delay = 1;
input_speedup     = 1;
output_speedup    = 1;
internal_speedup  = 1.0;

// Detailed simulation settings (longer runs for accuracy)
sim_type = latency;
warmup_periods = 3;
sim_count = 1;
sample_period  = 10000;
max_samples = 15;
use_read_write = 0;
batch_size = 10000;
latency_thres = 5000;
packet_size = 1;

// Topology

topology = flatfly;
subnets = 1;
c  = 4;
k  = 4;
n  = 2;
x  = 4;
y  = 4;
xr = 2;
yr = 2;
limit = 64;
routing_function = ran_min;


// Traffic - 2 classes with different priorities
// Using uniform traffic with configurable injection rate
// Split injection: 30% control (class 0), 70% batch (class 1)
traffic = uniform;
injection_rate = {0.12,0.27999999999999997};

// 2-class traffic for SLO-aware policies
classes = 2;
class_priority = {1,0};
class_slo = {50,-1};
priority_policy = static_class;

// Orion power model
use_orion = 1;
Vdd = 1.0;
Orion_tr = 0.2;
Orion_Freq = 1e9;
Orion_inport = 5;
Orion_outport = 5;
Orion_bitwidth = 128;
Orion_vc_class = 1;
Orion_IsSharedBuffIn = 0;
Orion_IsSharedBuffOut = 0;
Orion_crossbar_model = 0;
Orion_crsbar_degree = 4;
Orion_Cxbar_Cxpoint = 0;
Orion_trans_type = 0;
Orion_IsInBuff = 1;
Orion_out_buf_size = 0;
Orion_IsOutBuff = 0;
Orion_buff_type = 0;
Orion_in_arb_model = 1;
Orion_out_arb_model = 1;
Orion_allocator_model = 1;
Orion_in_vc_arb_model = 1;
Orion_out_vc_arb_model = 1;
wire_length = 1.0;

// Power cap
power_cap = 0.7;

// DVFS base settings
dvfs_epoch = 10000;
dvfs_log_interval = 10000;
dvfs_freqs = 1.0;
dvfs_voltages = 1.0;
router_domains = 0;

// Policy-specific settings

dvfs_policy = hw_reactive;
dvfs_min_scale = 0.5;
dvfs_max_scale = 1.0;
hw_reactive_signal = queue;
hw_reactive_high_thresh = 0.05;
hw_reactive_low_thresh = 0.01;
hw_reactive_high_scale = 1.0;
hw_reactive_low_scale = 0.5;
hw_reactive_hysteresis_epochs = 2;
hw_reactive_per_router = 1;
hw_reactive_headroom_margin = 0.05;
control_class_id = 0;
control_slo_cycles = 50.0;


// Output files
latency_csv = latency.csv;
stall_csv = stalls.csv;
throughput_csv = throughput.csv;
summary_csv = summary.csv;
energy_csv = energy.csv;
epoch_csv = epoch.csv;
dvfs_log = power_log;
output_dir = /Users/yash/Projects/wsc-noc-dvfs/final_paper_sims/flatfly;
run_name = flatfly_hw_reactive_inj0.4_cap0.7;

END Configuration File: /Users/yash/Projects/wsc-noc-dvfs/final_paper_sims/flatfly/flatfly_hw_reactive_inj0.4_cap0.7/config.cfg
 Flat Bufferfly 
 k = 4 n = 2 c = 4
 each switch - total radix =  10
 # of switches = 16
 # of channels = 96
 # of nodes ( size of network ) = 64
Class 0:
Packet latency average = 16.7305
	minimum = 6
	maximum = 43
Network latency average = 16.7305
	minimum = 6
	maximum = 43
Slowest packet = 116104
Flit latency average = 16.7305
	minimum = 6
	maximum = 43
Slowest flit = 116104
Fragmentation average = 0
	minimum = 0
	maximum = 0
Injected packet rate average = 0.120137
	minimum = 0.1138 (at node 30)
	maximum = 0.1294 (at node 3)
Accepted packet rate average = 0.119934
	minimum = 0.1106 (at node 31)
	maximum = 0.1289 (at node 28)
Injected flit rate average = 0.120137
	minimum = 0.1138 (at node 30)
	maximum = 0.1294 (at node 3)
Accepted flit rate average= 0.119934
	minimum = 0.1106 (at node 31)
	maximum = 0.1289 (at node 28)
Injected packet length average = 1
Accepted packet length average = 1
Total in-flight flits = 130 (0 measured)
Buffer busy stall rate = 0
Buffer conflict stall rate = 0
Buffer full stall rate = 0
Buffer reserved stall rate = 0.00023125
Crossbar conflict stall rate = 0.430063
Class 1:
Packet latency average = 16.8915
	minimum = 6
	maximum = 42
Network latency average = 16.691
	minimum = 6
	maximum = 41
Slowest packet = 96349
Flit latency average = 16.691
	minimum = 6
	maximum = 41
Slowest flit = 96349
Fragmentation average = 0
	minimum = 0
	maximum = 0
Injected packet rate average = 0.279075
	minimum = 0.2682 (at node 2)
	maximum = 0.2885 (at node 56)
Accepted packet rate average = 0.278606
	minimum = 0.2675 (at node 36)
	maximum = 0.2868 (at node 54)
Injected flit rate average = 0.279075
	minimum = 0.2682 (at node 2)
	maximum = 0.2885 (at node 56)
Accepted flit rate average= 0.278606
	minimum = 0.2675 (at node 36)
	maximum = 0.2868 (at node 54)
Injected packet length average = 1
Accepted packet length average = 1
Total in-flight flits = 305 (0 measured)
Buffer busy stall rate = 0
Buffer conflict stall rate = 0
Buffer full stall rate = 0
Buffer reserved stall rate = 0.0006625
Crossbar conflict stall rate = 0.971275
latency change    = 1
throughput change = 1
latency change    = 1
throughput change = 1
DVFS epoch t=10000 total_power=0.71974 headroom=-0.0197404 avg_power=0.71974 domains{0:freq=1,power=0.71974} routers{0:freq=1,power=0.0450147, 1:freq=1,power=0.0449747, 2:freq=1,power=0.0449776, 3:freq=1,power=0.0450061, 4:freq=1,power=0.0449376, 5:freq=1,power=0.0449586, 6:freq=1,power=0.0449794, 7:freq=1,power=0.0449517, 8:freq=1,power=0.0449767, 9:freq=1,power=0.0449873, 10:freq=1,power=0.0449582, 11:freq=1,power=0.0450018, 12:freq=1,power=0.045034, 13:freq=1,power=0.0449815, 14:freq=1,power=0.0449822, 15:freq=1,power=0.045018}
HW_REACTIVE_DIFF: epoch=1 max_signal=0.00859375 base_scale=0.957699 headroom=-0.0197404
Class 0:
Packet latency average = 17.3858
	minimum = 6
	maximum = 51
Network latency average = 17.3858
	minimum = 6
	maximum = 51
Slowest packet = 298313
Flit latency average = 17.3858
	minimum = 6
	maximum = 51
Slowest flit = 298313
Fragmentation average = 0
	minimum = 0
	maximum = 0
Injected packet rate average = 0.120087
	minimum = 0.11325 (at node 13)
	maximum = 0.12565 (at node 57)
Accepted packet rate average = 0.119995
	minimum = 0.11555 (at node 31)
	maximum = 0.12505 (at node 57)
Injected flit rate average = 0.120087
	minimum = 0.11325 (at node 13)
	maximum = 0.12565 (at node 57)
Accepted flit rate average= 0.119995
	minimum = 0.11555 (at node 31)
	maximum = 0.12505 (at node 57)
Injected packet length average = 1
Accepted packet length average = 1
Total in-flight flits = 118 (0 measured)
Buffer busy stall rate = 0
Buffer conflict stall rate = 0
Buffer full stall rate = 0
Buffer reserved stall rate = 0.000353125
Crossbar conflict stall rate = 0.470825
Class 1:
Packet latency average = 17.5253
	minimum = 6
	maximum = 51
Network latency average = 17.3268
	minimum = 6
	maximum = 51
Slowest packet = 286784
Flit latency average = 17.3268
	minimum = 6
	maximum = 51
Slowest flit = 286784
Fragmentation average = 0
	minimum = 0
	maximum = 0
Injected packet rate average = 0.279451
	minimum = 0.27225 (at node 25)
	maximum = 0.2878 (at node 56)
Accepted packet rate average = 0.279212
	minimum = 0.27215 (at node 62)
	maximum = 0.28615 (at node 27)
Injected flit rate average = 0.279451
	minimum = 0.27225 (at node 25)
	maximum = 0.2878 (at node 56)
Accepted flit rate average= 0.279212
	minimum = 0.27215 (at node 62)
	maximum = 0.28615 (at node 27)
Injected packet length average = 1
Accepted packet length average = 1
Total in-flight flits = 307 (0 measured)
Buffer busy stall rate = 0
Buffer conflict stall rate = 0
Buffer full stall rate = 0
Buffer reserved stall rate = 0.00091875
Crossbar conflict stall rate = 1.06096
latency change    = 0.0376946
throughput change = 0.000507832
latency change    = 0.0361671
throughput change = 0.00216849
DVFS epoch t=20000 total_power=0.691158 headroom=0.00884158 avg_power=0.705449 domains{0:freq=1,power=0.691158} routers{0:freq=1,power=0.0461771, 1:freq=0.968204,power=0.0449168, 2:freq=0.968204,power=0.0449044, 3:freq=0.877621,power=0.0412109, 4:freq=1,power=0.046124, 5:freq=0.984993,power=0.0455549, 6:freq=0.877621,power=0.0412644, 7:freq=0.958902,power=0.0445355, 8:freq=0.958902,power=0.0445095, 9:freq=0.922193,power=0.0430783, 10:freq=0.922193,power=0.0430823, 11:freq=0.767018,power=0.0368567, 12:freq=0.992685,power=0.0458951, 13:freq=0.827029,power=0.0392639, 14:freq=0.958902,power=0.0445709, 15:freq=0.827029,power=0.0392136}
Class 0:
Packet latency average = 17.9924
	minimum = 6
	maximum = 57
Network latency average = 17.9924
	minimum = 6
	maximum = 57
Slowest packet = 612379
Flit latency average = 17.9924
	minimum = 6
	maximum = 57
Slowest flit = 612379
Fragmentation average = 0
	minimum = 0
	maximum = 0
Injected packet rate average = 0.120053
	minimum = 0.113 (at node 9)
	maximum = 0.1255 (at node 52)
Accepted packet rate average = 0.120044
	minimum = 0.1129 (at node 18)
	maximum = 0.1281 (at node 43)
Injected flit rate average = 0.120053
	minimum = 0.113 (at node 9)
	maximum = 0.1255 (at node 52)
Accepted flit rate average= 0.120044
	minimum = 0.1129 (at node 18)
	maximum = 0.1281 (at node 43)
Injected packet length average = 1
Accepted packet length average = 1
Total in-flight flits = 124 (0 measured)
Buffer busy stall rate = 0
Buffer conflict stall rate = 0
Buffer full stall rate = 0
Buffer reserved stall rate = 0.00039375
Crossbar conflict stall rate = 0.51205
Class 1:
Packet latency average = 18.1544
	minimum = 6
	maximum = 67
Network latency average = 17.9559
	minimum = 6
	maximum = 66
Slowest packet = 640573
Flit latency average = 17.9559
	minimum = 6
	maximum = 66
Slowest flit = 640573
Fragmentation average = 0
	minimum = 0
	maximum = 0
Injected packet rate average = 0.279328
	minimum = 0.2712 (at node 19)
	maximum = 0.2881 (at node 40)
Accepted packet rate average = 0.279314
	minimum = 0.2676 (at node 60)
	maximum = 0.2924 (at node 37)
Injected flit rate average = 0.279328
	minimum = 0.2712 (at node 19)
	maximum = 0.2881 (at node 40)
Accepted flit rate average= 0.279314
	minimum = 0.2676 (at node 60)
	maximum = 0.2924 (at node 37)
Injected packet length average = 1
Accepted packet length average = 1
Total in-flight flits = 322 (0 measured)
Buffer busy stall rate = 0
Buffer conflict stall rate = 0
Buffer full stall rate = 0
Buffer reserved stall rate = 0.000975
Crossbar conflict stall rate = 1.15108
latency change    = 0.0337133
throughput change = 0.000403499
latency change    = 0.0346502
throughput change = 0.000366411
Warmed up ...Time used is 30000 cycles
DVFS epoch t=30000 total_power=0.708424 headroom=-0.0084245 avg_power=0.706441 domains{0:freq=1,power=0.708424} routers{0:freq=1,power=0.0473158, 1:freq=0.968204,power=0.0460585, 2:freq=0.968204,power=0.0460298, 3:freq=0.877621,power=0.0422759, 4:freq=1,power=0.0473384, 5:freq=0.984993,power=0.0467094, 6:freq=0.877621,power=0.0422829, 7:freq=0.958902,power=0.0456669, 8:freq=0.958902,power=0.0456728, 9:freq=0.922193,power=0.0441138, 10:freq=0.922193,power=0.0441405, 11:freq=0.767018,power=0.0377064, 12:freq=0.992685,power=0.0470608, 13:freq=0.827029,power=0.0402096, 14:freq=0.958902,power=0.0456668, 15:freq=0.827029,power=0.0401762}
HW_REACTIVE_DIFF: epoch=3 max_signal=0.0117188 base_scale=0.94041 headroom=-0.0084245
Class 0:
Packet latency average = 18.3775
	minimum = 6
	maximum = 56
Network latency average = 18.3775
	minimum = 6
	maximum = 56
Slowest packet = 790908
Flit latency average = 18.3799
	minimum = 6
	maximum = 56
Slowest flit = 790908
Fragmentation average = 0
	minimum = 0
	maximum = 0
Injected packet rate average = 0.120538
	minimum = 0.1142 (at node 53)
	maximum = 0.1283 (at node 56)
Accepted packet rate average = 0.120492
	minimum = 0.1116 (at node 16)
	maximum = 0.1295 (at node 47)
Injected flit rate average = 0.120538
	minimum = 0.1142 (at node 53)
	maximum = 0.1283 (at node 56)
Accepted flit rate average= 0.120492
	minimum = 0.1116 (at node 16)
	maximum = 0.1295 (at node 47)
Injected packet length average = 1
Accepted packet length average = 1
Total in-flight flits = 153 (153 measured)
Buffer busy stall rate = 0
Buffer conflict stall rate = 0
Buffer full stall rate = 0
Buffer reserved stall rate = 0.000925
Crossbar conflict stall rate = 0.537
Class 1:
Packet latency average = 18.5431
	minimum = 6
	maximum = 56
Network latency average = 18.3392
	minimum = 6
	maximum = 55
Slowest packet = 790989
Flit latency average = 18.3416
	minimum = 6
	maximum = 55
Slowest flit = 791187
Fragmentation average = 0
	minimum = 0
	maximum = 0
Injected packet rate average = 0.279794
	minimum = 0.2684 (at node 23)
	maximum = 0.2902 (at node 20)
Accepted packet rate average = 0.279777
	minimum = 0.2648 (at node 6)
	maximum = 0.2927 (at node 3)
Injected flit rate average = 0.279794
	minimum = 0.2684 (at node 23)
	maximum = 0.2902 (at node 20)
Accepted flit rate average= 0.279777
	minimum = 0.2648 (at node 6)
	maximum = 0.2927 (at node 3)
Injected packet length average = 1
Accepted packet length average = 1
Total in-flight flits = 331 (331 measured)
Buffer busy stall rate = 0
Buffer conflict stall rate = 0
Buffer full stall rate = 0
Buffer reserved stall rate = 0.0021125
Crossbar conflict stall rate = 1.21667
latency change    = 0.020955
throughput change = 0.00372171
latency change    = 0.020961
throughput change = 0.0016531
DVFS epoch t=40000 total_power=0.713409 headroom=-0.0134093 avg_power=0.708183 domains{0:freq=0.941979,power=0.713409} routers{0:freq=0.941979,power=0.0460996, 1:freq=0.816388,power=0.040735, 2:freq=0.957424,power=0.0467094, 3:freq=0.949978,power=0.0463711, 4:freq=0.758329,power=0.0382727, 5:freq=0.941979,power=0.0460674, 6:freq=0.865333,power=0.042855, 7:freq=0.816388,power=0.0407578, 8:freq=0.865333,power=0.0428578, 9:freq=0.941979,power=0.0460664, 10:freq=0.941979,power=0.0460061, 11:freq=0.865333,power=0.0428273, 12:freq=0.977323,power=0.0475924, 13:freq=0.964417,power=0.0470258, 14:freq=0.908455,power=0.0446311, 15:freq=1,power=0.0485345}
Class 0:
Packet latency average = 18.3488
	minimum = 6
	maximum = 56
Network latency average = 18.3488
	minimum = 6
	maximum = 56
Slowest packet = 790908
Flit latency average = 18.35
	minimum = 6
	maximum = 56
Slowest flit = 790908
Fragmentation average = 0
	minimum = 0
	maximum = 0
Injected packet rate average = 0.12012
	minimum = 0.1152 (at node 6)
	maximum = 0.12565 (at node 21)
Accepted packet rate average = 0.120115
	minimum = 0.11475 (at node 4)
	maximum = 0.12615 (at node 31)
Injected flit rate average = 0.12012
	minimum = 0.1152 (at node 6)
	maximum = 0.12565 (at node 21)
Accepted flit rate average= 0.120115
	minimum = 0.11475 (at node 4)
	maximum = 0.12615 (at node 31)
Injected packet length average = 1
Accepted packet length average = 1
Total in-flight flits = 131 (131 measured)
Buffer busy stall rate = 0
Buffer conflict stall rate = 0
Buffer full stall rate = 0
Buffer reserved stall rate = 0.00090625
Crossbar conflict stall rate = 0.530541
Class 1:
Packet latency average = 18.5265
	minimum = 6
	maximum = 56
Network latency average = 18.3255
	minimum = 6
	maximum = 56
Slowest packet = 790989
Flit latency average = 18.3267
	minimum = 6
	maximum = 56
Slowest flit = 1061759
Fragmentation average = 0
	minimum = 0
	maximum = 0
Injected packet rate average = 0.279366
	minimum = 0.274 (at node 55)
	maximum = 0.28865 (at node 15)
Accepted packet rate average = 0.279366
	minimum = 0.27005 (at node 6)
	maximum = 0.28715 (at node 3)
Injected flit rate average = 0.279366
	minimum = 0.274 (at node 55)
	maximum = 0.28865 (at node 15)
Accepted flit rate average= 0.279366
	minimum = 0.27005 (at node 6)
	maximum = 0.28715 (at node 3)
Injected packet length average = 1
Accepted packet length average = 1
Total in-flight flits = 316 (316 measured)
Buffer busy stall rate = 0
Buffer conflict stall rate = 0
Buffer full stall rate = 0
Buffer reserved stall rate = 0.00205
Crossbar conflict stall rate = 1.20748
latency change    = 0.00156466
throughput change = 0.00314152
latency change    = 0.000892405
throughput change = 0.00146817
DVFS epoch t=50000 total_power=0.730097 headroom=-0.030097 avg_power=0.712566 domains{0:freq=0.941979,power=0.730097} routers{0:freq=0.941979,power=0.0471796, 1:freq=0.816388,power=0.0416416, 2:freq=0.957424,power=0.0478422, 3:freq=0.949978,power=0.0475375, 4:freq=0.758329,power=0.0391258, 5:freq=0.941979,power=0.0471422, 6:freq=0.865333,power=0.0438218, 7:freq=0.816388,power=0.041682, 8:freq=0.865333,power=0.0437721, 9:freq=0.941979,power=0.0471633, 10:freq=0.941979,power=0.0471427, 11:freq=0.865333,power=0.0437929, 12:freq=0.977323,power=0.0487185, 13:freq=0.964417,power=0.0481645, 14:freq=0.908455,power=0.0457122, 15:freq=1,power=0.0496581}
HW_REACTIVE_DIFF: epoch=5 max_signal=0.0109375 base_scale=0.87976 headroom=-0.030097
Class 0:
Packet latency average = 18.7643
	minimum = 6
	maximum = 90
Network latency average = 18.7643
	minimum = 6
	maximum = 90
Slowest packet = 1425789
Flit latency average = 18.7649
	minimum = 6
	maximum = 90
Slowest flit = 1425789
Fragmentation average = 0
	minimum = 0
	maximum = 0
Injected packet rate average = 0.120152
	minimum = 0.116167 (at node 27)
	maximum = 0.125033 (at node 8)
Accepted packet rate average = 0.120145
	minimum = 0.1163 (at node 4)
	maximum = 0.1262 (at node 28)
Injected flit rate average = 0.120152
	minimum = 0.116167 (at node 27)
	maximum = 0.125033 (at node 8)
Accepted flit rate average= 0.120145
	minimum = 0.1163 (at node 4)
	maximum = 0.1262 (at node 28)
Injected packet length average = 1
Accepted packet length average = 1
Total in-flight flits = 138 (138 measured)
Buffer busy stall rate = 0
Buffer conflict stall rate = 0
Buffer full stall rate = 0
Buffer reserved stall rate = 0.00251875
Crossbar conflict stall rate = 0.550406
Class 1:
Packet latency average = 18.9186
	minimum = 6
	maximum = 92
Network latency average = 18.7169
	minimum = 6
	maximum = 91
Slowest packet = 1425920
Flit latency average = 18.7174
	minimum = 6
	maximum = 91
Slowest flit = 1425920
Fragmentation average = 0
	minimum = 0
	maximum = 0
Injected packet rate average = 0.27994
	minimum = 0.275033 (at node 19)
	maximum = 0.289467 (at node 15)
Accepted packet rate average = 0.27993
	minimum = 0.2716 (at node 6)
	maximum = 0.285933 (at node 21)
Injected flit rate average = 0.27994
	minimum = 0.275033 (at node 19)
	maximum = 0.289467 (at node 15)
Accepted flit rate average= 0.27993
	minimum = 0.2716 (at node 6)
	maximum = 0.285933 (at node 21)
Injected packet length average = 1
Accepted packet length average = 1
Total in-flight flits = 337 (337 measured)
Buffer busy stall rate = 0
Buffer conflict stall rate = 0
Buffer full stall rate = 0
Buffer reserved stall rate = 0.00557292
Crossbar conflict stall rate = 1.25169
latency change    = 0.0221454
throughput change = 0.000249265
latency change    = 0.0207235
throughput change = 0.00201222
Draining all recorded packets ...
DVFS epoch t=60000 total_power=0.72584 headroom=-0.0258397 avg_power=0.714778 domains{0:freq=0.908717,power=0.72584} routers{0:freq=0.908717,power=0.046835, 1:freq=0.908717,power=0.0468435, 2:freq=0.863417,power=0.0448106, 3:freq=0.836458,power=0.0435797, 4:freq=0.836458,power=0.043591, 5:freq=0.908717,power=0.0468166, 6:freq=0.92869,power=0.0477008, 7:freq=1,power=0.0509389, 8:freq=0.983248,power=0.0501395, 9:freq=0.737912,power=0.0391255, 10:freq=0.908717,power=0.0467979, 11:freq=0.908717,power=0.0467979, 12:freq=0.836458,power=0.0435844, 13:freq=0.908717,power=0.0467893, 14:freq=0.908717,power=0.0468362, 15:freq=0.637359,power=0.0346528}
Draining remaining packets ...
Time taken is 60094 cycles
====== Overall Traffic Statistics ======
====== Traffic class 0 ======
Packet latency average = 18.7655 (1 samples)
	minimum = 6 (1 samples)
	maximum = 90 (1 samples)
Network latency average = 18.7655 (1 samples)
	minimum = 6 (1 samples)
	maximum = 90 (1 samples)
Flit latency average = 18.7679 (1 samples)
	minimum = 6 (1 samples)
	maximum = 90 (1 samples)
Fragmentation average = 0 (1 samples)
	minimum = 0 (1 samples)
	maximum = 0 (1 samples)
Injected packet rate average = 0.120152 (1 samples)
	minimum = 0.116167 (1 samples)
	maximum = 0.125033 (1 samples)
Accepted packet rate average = 0.120145 (1 samples)
	minimum = 0.1163 (1 samples)
	maximum = 0.1262 (1 samples)
Injected flit rate average = 0.120152 (1 samples)
	minimum = 0.116167 (1 samples)
	maximum = 0.125033 (1 samples)
Accepted flit rate average = 0.120145 (1 samples)
	minimum = 0.1163 (1 samples)
	maximum = 0.1262 (1 samples)
Injected packet size average = 1 (1 samples)
Accepted packet size average = 1 (1 samples)
Hops average = 2.5013 (1 samples)
Buffer busy stall rate = 0 (1 samples)
Buffer conflict stall rate = 0 (1 samples)
Buffer full stall rate = 0 (1 samples)
Buffer reserved stall rate = 0.00251875 (1 samples)
Crossbar conflict stall rate = 0.550406 (1 samples)
====== Traffic class 1 ======
Packet latency average = 18.9204 (1 samples)
	minimum = 6 (1 samples)
	maximum = 92 (1 samples)
Network latency average = 18.7187 (1 samples)
	minimum = 6 (1 samples)
	maximum = 91 (1 samples)
Flit latency average = 18.7208 (1 samples)
	minimum = 6 (1 samples)
	maximum = 91 (1 samples)
Fragmentation average = 0 (1 samples)
	minimum = 0 (1 samples)
	maximum = 0 (1 samples)
Injected packet rate average = 0.27994 (1 samples)
	minimum = 0.275033 (1 samples)
	maximum = 0.289467 (1 samples)
Accepted packet rate average = 0.27993 (1 samples)
	minimum = 0.2716 (1 samples)
	maximum = 0.285933 (1 samples)
Injected flit rate average = 0.27994 (1 samples)
	minimum = 0.275033 (1 samples)
	maximum = 0.289467 (1 samples)
Accepted flit rate average = 0.27993 (1 samples)
	minimum = 0.2716 (1 samples)
	maximum = 0.285933 (1 samples)
Injected packet size average = 1 (1 samples)
Accepted packet size average = 1 (1 samples)
Hops average = 2.5001 (1 samples)
Buffer busy stall rate = 0 (1 samples)
Buffer conflict stall rate = 0 (1 samples)
Buffer full stall rate = 0 (1 samples)
Buffer reserved stall rate = 0.00557292 (1 samples)
Crossbar conflict stall rate = 1.25169 (1 samples)
Total run time 53.2424
1.85573e-13
1.01182e-14
8.2655e-14
1.09233e-13
1.89983e-13
5.84568e-13
3.37458e-13
1.11201e-12
8.52002e-14
1.49959e-12
4.63932e-14
1.01182e-14
2.06637e-14
1.56046e-14
1.89983e-13
8.35097e-14
8.43644e-14
3.57857e-13
2.13e-14
4.50637e-13
2.31966e-14
1.01182e-14
3.3062e-13
4.83744e-13
1.89983e-13
2.5888e-12
1.34983e-12
4.12861e-12
3.40801e-13
4.97629e-12
2.8975e-11
4.38691e-11
1.85573e-13
1.01182e-14
8.2655e-14
1.09233e-13
1.89983e-13
5.84568e-13
3.37458e-13
1.11201e-12
8.52002e-14
1.49959e-12
4.63932e-14
1.01182e-14
2.06637e-14
1.56046e-14
1.89983e-13
8.35097e-14
8.43644e-14
3.57857e-13
2.13e-14
4.50637e-13
2.31966e-14
1.01182e-14
3.3062e-13
4.83744e-13
1.89983e-13
2.5888e-12
1.34983e-12
4.12861e-12
3.40801e-13
4.97629e-12
2.8975e-11
4.38366e-11
1.85573e-13
1.01182e-14
8.2655e-14
1.09233e-13
1.89983e-13
5.84568e-13
3.37458e-13
1.11201e-12
8.52002e-14
1.49959e-12
4.63932e-14
1.01182e-14
2.06637e-14
1.56046e-14
1.89983e-13
8.35097e-14
8.43644e-14
3.57857e-13
2.13e-14
4.50637e-13
2.31966e-14
1.01182e-14
3.3062e-13
4.83744e-13
1.89983e-13
2.5888e-12
1.34983e-12
4.12861e-12
3.40801e-13
4.97629e-12
2.8975e-11
4.3839e-11
1.85573e-13
1.01182e-14
8.2655e-14
1.09233e-13
1.89983e-13
5.84568e-13
3.37458e-13
1.11201e-12
8.52002e-14
1.49959e-12
4.63932e-14
1.01182e-14
2.06637e-14
1.56046e-14
1.89983e-13
8.35097e-14
8.43644e-14
3.57857e-13
2.13e-14
4.50637e-13
2.31966e-14
1.01182e-14
3.3062e-13
4.83744e-13
1.89983e-13
2.5888e-12
1.34983e-12
4.12861e-12
3.40801e-13
4.97629e-12
2.8975e-11
4.3862e-11
1.85573e-13
1.01182e-14
8.2655e-14
1.09233e-13
1.89983e-13
5.84568e-13
3.37458e-13
1.11201e-12
8.52002e-14
1.49959e-12
4.63932e-14
1.01182e-14
2.06637e-14
1.56046e-14
1.89983e-13
8.35097e-14
8.43644e-14
3.57857e-13
2.13e-14
4.50637e-13
2.31966e-14
1.01182e-14
3.3062e-13
4.83744e-13
1.89983e-13
2.5888e-12
1.34983e-12
4.12861e-12
3.40801e-13
4.97629e-12
2.8975e-11
4.38066e-11
1.85573e-13
1.01182e-14
8.2655e-14
1.09233e-13
1.89983e-13
5.84568e-13
3.37458e-13
1.11201e-12
8.52002e-14
1.49959e-12
4.63932e-14
1.01182e-14
2.06637e-14
1.56046e-14
1.89983e-13
8.35097e-14
8.43644e-14
3.57857e-13
2.13e-14
4.50637e-13
2.31966e-14
1.01182e-14
3.3062e-13
4.83744e-13
1.89983e-13
2.5888e-12
1.34983e-12
4.12861e-12
3.40801e-13
4.97629e-12
2.8975e-11
4.38235e-11
1.85573e-13
1.01182e-14
8.2655e-14
1.09233e-13
1.89983e-13
5.84568e-13
3.37458e-13
1.11201e-12
8.52002e-14
1.49959e-12
4.63932e-14
1.01182e-14
2.06637e-14
1.56046e-14
1.89983e-13
8.35097e-14
8.43644e-14
3.57857e-13
2.13e-14
4.50637e-13
2.31966e-14
1.01182e-14
3.3062e-13
4.83744e-13
1.89983e-13
2.5888e-12
1.34983e-12
4.12861e-12
3.40801e-13
4.97629e-12
2.8975e-11
4.38403e-11
1.85573e-13
1.01182e-14
8.2655e-14
1.09233e-13
1.89983e-13
5.84568e-13
3.37458e-13
1.11201e-12
8.52002e-14
1.49959e-12
4.63932e-14
1.01182e-14
2.06637e-14
1.56046e-14
1.89983e-13
8.35097e-14
8.43644e-14
3.57857e-13
2.13e-14
4.50637e-13
2.31966e-14
1.01182e-14
3.3062e-13
4.83744e-13
1.89983e-13
2.5888e-12
1.34983e-12
4.12861e-12
3.40801e-13
4.97629e-12
2.8975e-11
4.38179e-11
1.85573e-13
1.01182e-14
8.2655e-14
1.09233e-13
1.89983e-13
5.84568e-13
3.37458e-13
1.11201e-12
8.52002e-14
1.49959e-12
4.63932e-14
1.01182e-14
2.06637e-14
1.56046e-14
1.89983e-13
8.35097e-14
8.43644e-14
3.57857e-13
2.13e-14
4.50637e-13
2.31966e-14
1.01182e-14
3.3062e-13
4.83744e-13
1.89983e-13
2.5888e-12
1.34983e-12
4.12861e-12
3.40801e-13
4.97629e-12
2.8975e-11
4.38382e-11
1.85573e-13
1.01182e-14
8.2655e-14
1.09233e-13
1.89983e-13
5.84568e-13
3.37458e-13
1.11201e-12
8.52002e-14
1.49959e-12
4.63932e-14
1.01182e-14
2.06637e-14
1.56046e-14
1.89983e-13
8.35097e-14
8.43644e-14
3.57857e-13
2.13e-14
4.50637e-13
2.31966e-14
1.01182e-14
3.3062e-13
4.83744e-13
1.89983e-13
2.5888e-12
1.34983e-12
4.12861e-12
3.40801e-13
4.97629e-12
2.8975e-11
4.38468e-11
1.85573e-13
1.01182e-14
8.2655e-14
1.09233e-13
1.89983e-13
5.84568e-13
3.37458e-13
1.11201e-12
8.52002e-14
1.49959e-12
4.63932e-14
1.01182e-14
2.06637e-14
1.56046e-14
1.89983e-13
8.35097e-14
8.43644e-14
3.57857e-13
2.13e-14
4.50637e-13
2.31966e-14
1.01182e-14
3.3062e-13
4.83744e-13
1.89983e-13
2.5888e-12
1.34983e-12
4.12861e-12
3.40801e-13
4.97629e-12
2.8975e-11
4.38232e-11
1.85573e-13
1.01182e-14
8.2655e-14
1.09233e-13
1.89983e-13
5.84568e-13
3.37458e-13
1.11201e-12
8.52002e-14
1.49959e-12
4.63932e-14
1.01182e-14
2.06637e-14
1.56046e-14
1.89983e-13
8.35097e-14
8.43644e-14
3.57857e-13
2.13e-14
4.50637e-13
2.31966e-14
1.01182e-14
3.3062e-13
4.83744e-13
1.89983e-13
2.5888e-12
1.34983e-12
4.12861e-12
3.40801e-13
4.97629e-12
2.8975e-11
4.38584e-11
1.85573e-13
1.01182e-14
8.2655e-14
1.09233e-13
1.89983e-13
5.84568e-13
3.37458e-13
1.11201e-12
8.52002e-14
1.49959e-12
4.63932e-14
1.01182e-14
2.06637e-14
1.56046e-14
1.89983e-13
8.35097e-14
8.43644e-14
3.57857e-13
2.13e-14
4.50637e-13
2.31966e-14
1.01182e-14
3.3062e-13
4.83744e-13
1.89983e-13
2.5888e-12
1.34983e-12
4.12861e-12
3.40801e-13
4.97629e-12
2.8975e-11
4.38847e-11
1.85573e-13
1.01182e-14
8.2655e-14
1.09233e-13
1.89983e-13
5.84568e-13
3.37458e-13
1.11201e-12
8.52002e-14
1.49959e-12
4.63932e-14
1.01182e-14
2.06637e-14
1.56046e-14
1.89983e-13
8.35097e-14
8.43644e-14
3.57857e-13
2.13e-14
4.50637e-13
2.31966e-14
1.01182e-14
3.3062e-13
4.83744e-13
1.89983e-13
2.5888e-12
1.34983e-12
4.12861e-12
3.40801e-13
4.97629e-12
2.8975e-11
4.3842e-11
1.85573e-13
1.01182e-14
8.2655e-14
1.09233e-13
1.89983e-13
5.84568e-13
3.37458e-13
1.11201e-12
8.52002e-14
1.49959e-12
4.63932e-14
1.01182e-14
2.06637e-14
1.56046e-14
1.89983e-13
8.35097e-14
8.43644e-14
3.57857e-13
2.13e-14
4.50637e-13
2.31966e-14
1.01182e-14
3.3062e-13
4.83744e-13
1.89983e-13
2.5888e-12
1.34983e-12
4.12861e-12
3.40801e-13
4.97629e-12
2.8975e-11
4.38426e-11
1.85573e-13
1.01182e-14
8.2655e-14
1.09233e-13
1.89983e-13
5.84568e-13
3.37458e-13
1.11201e-12
8.52002e-14
1.49959e-12
4.63932e-14
1.01182e-14
2.06637e-14
1.56046e-14
1.89983e-13
8.35097e-14
8.43644e-14
3.57857e-13
2.13e-14
4.50637e-13
2.31966e-14
1.01182e-14
3.3062e-13
4.83744e-13
1.89983e-13
2.5888e-12
1.34983e-12
4.12861e-12
3.40801e-13
4.97629e-12
2.8975e-11
4.38716e-11
1.85573e-13
1.01182e-14
8.2655e-14
1.09233e-13
1.89983e-13
5.84568e-13
3.37458e-13
1.11201e-12
8.52002e-14
1.49959e-12
4.63932e-14
1.01182e-14
2.06637e-14
1.56046e-14
1.89983e-13
8.35097e-14
8.43644e-14
3.57857e-13
2.13e-14
4.50637e-13
2.31966e-14
1.01182e-14
3.3062e-13
4.83744e-13
1.89983e-13
2.5888e-12
1.34983e-12
4.12861e-12
3.40801e-13
4.97629e-12
3.01535e-11
4.50342e-11
1.85573e-13
1.01182e-14
8.2655e-14
1.09233e-13
1.89983e-13
5.84568e-13
3.37458e-13
1.11201e-12
8.52002e-14
1.49959e-12
4.63932e-14
1.01182e-14
2.06637e-14
1.56046e-14
1.89983e-13
8.35097e-14
8.43644e-14
3.57857e-13
2.13e-14
4.50637e-13
2.31966e-14
1.01182e-14
3.3062e-13
4.83744e-13
1.89983e-13
2.5888e-12
1.34983e-12
4.12861e-12
3.40801e-13
4.97629e-12
3.01535e-11
4.52083e-11
1.85573e-13
1.01182e-14
8.2655e-14
1.09233e-13
1.89983e-13
5.84568e-13
3.37458e-13
1.11201e-12
8.52002e-14
1.49959e-12
4.63932e-14
1.01182e-14
2.06637e-14
1.56046e-14
1.89983e-13
8.35097e-14
8.43644e-14
3.57857e-13
2.13e-14
4.50637e-13
2.31966e-14
1.01182e-14
3.3062e-13
4.83744e-13
1.89983e-13
2.5888e-12
1.34983e-12
4.12861e-12
3.40801e-13
4.97629e-12
3.01535e-11
4.51979e-11
1.85573e-13
1.01182e-14
8.2655e-14
1.09233e-13
1.89983e-13
5.84568e-13
3.37458e-13
1.11201e-12
8.52002e-14
1.49959e-12
4.63932e-14
1.01182e-14
2.06637e-14
1.56046e-14
1.89983e-13
8.35097e-14
8.43644e-14
3.57857e-13
2.13e-14
4.50637e-13
2.31966e-14
1.01182e-14
3.3062e-13
4.83744e-13
1.89983e-13
2.5888e-12
1.34983e-12
4.12861e-12
3.40801e-13
4.97629e-12
3.01535e-11
4.56669e-11
1.85573e-13
1.01182e-14
8.2655e-14
1.09233e-13
1.89983e-13
5.84568e-13
3.37458e-13
1.11201e-12
8.52002e-14
1.49959e-12
4.63932e-14
1.01182e-14
2.06637e-14
1.56046e-14
1.89983e-13
8.35097e-14
8.43644e-14
3.57857e-13
2.13e-14
4.50637e-13
2.31966e-14
1.01182e-14
3.3062e-13
4.83744e-13
1.89983e-13
2.5888e-12
1.34983e-12
4.12861e-12
3.40801e-13
4.97629e-12
3.01535e-11
4.49911e-11
1.85573e-13
1.01182e-14
8.2655e-14
1.09233e-13
1.89983e-13
5.84568e-13
3.37458e-13
1.11201e-12
8.52002e-14
1.49959e-12
4.63932e-14
1.01182e-14
2.06637e-14
1.56046e-14
1.89983e-13
8.35097e-14
8.43644e-14
3.57857e-13
2.13e-14
4.50637e-13
2.31966e-14
1.01182e-14
3.3062e-13
4.83744e-13
1.89983e-13
2.5888e-12
1.34983e-12
4.12861e-12
3.40801e-13
4.97629e-12
3.01535e-11
4.50924e-11
1.85573e-13
1.01182e-14
8.2655e-14
1.09233e-13
1.89983e-13
5.84568e-13
3.37458e-13
1.11201e-12
8.52002e-14
1.49959e-12
4.63932e-14
1.01182e-14
2.06637e-14
1.56046e-14
1.89983e-13
8.35097e-14
8.43644e-14
3.57857e-13
2.13e-14
4.50637e-13
2.31966e-14
1.01182e-14
3.3062e-13
4.83744e-13
1.89983e-13
2.5888e-12
1.34983e-12
4.12861e-12
3.40801e-13
4.97629e-12
3.01535e-11
4.57165e-11
1.85573e-13
1.01182e-14
8.2655e-14
1.09233e-13
1.89983e-13
5.84568e-13
3.37458e-13
1.11201e-12
8.52002e-14
1.49959e-12
4.63932e-14
1.01182e-14
2.06637e-14
1.56046e-14
1.89983e-13
8.35097e-14
8.43644e-14
3.57857e-13
2.13e-14
4.50637e-13
2.31966e-14
1.01182e-14
3.3062e-13
4.83744e-13
1.89983e-13
2.5888e-12
1.34983e-12
4.12861e-12
3.40801e-13
4.97629e-12
3.01535e-11
4.52509e-11
1.85573e-13
1.01182e-14
8.2655e-14
1.09233e-13
1.89983e-13
5.84568e-13
3.37458e-13
1.11201e-12
8.52002e-14
1.49959e-12
4.63932e-14
1.01182e-14
2.06637e-14
1.56046e-14
1.89983e-13
8.35097e-14
8.43644e-14
3.57857e-13
2.13e-14
4.50637e-13
2.31966e-14
1.01182e-14
3.3062e-13
4.83744e-13
1.89983e-13
2.5888e-12
1.34983e-12
4.12861e-12
3.40801e-13
4.97629e-12
3.01535e-11
4.52288e-11
1.85573e-13
1.01182e-14
8.2655e-14
1.09233e-13
1.89983e-13
5.84568e-13
3.37458e-13
1.11201e-12
8.52002e-14
1.49959e-12
4.63932e-14
1.01182e-14
2.06637e-14
1.56046e-14
1.89983e-13
8.35097e-14
8.43644e-14
3.57857e-13
2.13e-14
4.50637e-13
2.31966e-14
1.01182e-14
3.3062e-13
4.83744e-13
1.89983e-13
2.5888e-12
1.34983e-12
4.12861e-12
3.40801e-13
4.97629e-12
3.01535e-11
4.54686e-11
1.85573e-13
1.01182e-14
8.2655e-14
1.09233e-13
1.89983e-13
5.84568e-13
3.37458e-13
1.11201e-12
8.52002e-14
1.49959e-12
4.63932e-14
1.01182e-14
2.06637e-14
1.56046e-14
1.89983e-13
8.35097e-14
8.43644e-14
3.57857e-13
2.13e-14
4.50637e-13
2.31966e-14
1.01182e-14
3.3062e-13
4.83744e-13
1.89983e-13
2.5888e-12
1.34983e-12
4.12861e-12
3.40801e-13
4.97629e-12
3.01535e-11
4.54722e-11
1.85573e-13
1.01182e-14
8.2655e-14
1.09233e-13
1.89983e-13
5.84568e-13
3.37458e-13
1.11201e-12
8.52002e-14
1.49959e-12
4.63932e-14
1.01182e-14
2.06637e-14
1.56046e-14
1.89983e-13
8.35097e-14
8.43644e-14
3.57857e-13
2.13e-14
4.50637e-13
2.31966e-14
1.01182e-14
3.3062e-13
4.83744e-13
1.89983e-13
2.5888e-12
1.34983e-12
4.12861e-12
3.40801e-13
4.97629e-12
3.01535e-11
4.65546e-11
1.85573e-13
1.01182e-14
8.2655e-14
1.09233e-13
1.89983e-13
5.84568e-13
3.37458e-13
1.11201e-12
8.52002e-14
1.49959e-12
4.63932e-14
1.01182e-14
2.06637e-14
1.56046e-14
1.89983e-13
8.35097e-14
8.43644e-14
3.57857e-13
2.13e-14
4.50637e-13
2.31966e-14
1.01182e-14
3.3062e-13
4.83744e-13
1.89983e-13
2.5888e-12
1.34983e-12
4.12861e-12
3.40801e-13
4.97629e-12
3.01535e-11
4.50797e-11
1.85573e-13
1.01182e-14
8.2655e-14
1.09233e-13
1.89983e-13
5.84568e-13
3.37458e-13
1.11201e-12
8.52002e-14
1.49959e-12
4.63932e-14
1.01182e-14
2.06637e-14
1.56046e-14
1.89983e-13
8.35097e-14
8.43644e-14
3.57857e-13
2.13e-14
4.50637e-13
2.31966e-14
1.01182e-14
3.3062e-13
4.83744e-13
1.89983e-13
2.5888e-12
1.34983e-12
4.12861e-12
3.40801e-13
4.97629e-12
3.01535e-11
4.60874e-11
1.85573e-13
1.01182e-14
8.2655e-14
1.09233e-13
1.89983e-13
5.84568e-13
3.37458e-13
1.11201e-12
8.52002e-14
1.49959e-12
4.63932e-14
1.01182e-14
2.06637e-14
1.56046e-14
1.89983e-13
8.35097e-14
8.43644e-14
3.57857e-13
2.13e-14
4.50637e-13
2.31966e-14
1.01182e-14
3.3062e-13
4.83744e-13
1.89983e-13
2.5888e-12
1.34983e-12
4.12861e-12
3.40801e-13
4.97629e-12
3.01535e-11
4.52807e-11
1.85573e-13
1.01182e-14
8.2655e-14
1.09233e-13
1.89983e-13
5.84568e-13
3.37458e-13
1.11201e-12
8.52002e-14
1.49959e-12
4.63932e-14
1.01182e-14
2.06637e-14
1.56046e-14
1.89983e-13
8.35097e-14
8.43644e-14
3.57857e-13
2.13e-14
4.50637e-13
2.31966e-14
1.01182e-14
3.3062e-13
4.83744e-13
1.89983e-13
2.5888e-12
1.34983e-12
4.12861e-12
3.40801e-13
4.97629e-12
3.01535e-11
4.6038e-11
1.85573e-13
1.01182e-14
8.2655e-14
1.09233e-13
1.89983e-13
5.84568e-13
3.37458e-13
1.11201e-12
8.52002e-14
1.49959e-12
4.63932e-14
1.01182e-14
2.06637e-14
1.56046e-14
1.89983e-13
8.35097e-14
8.43644e-14
3.57857e-13
2.13e-14
4.50637e-13
2.31966e-14
1.01182e-14
3.3062e-13
4.83744e-13
1.89983e-13
2.5888e-12
1.34983e-12
4.12861e-12
3.40801e-13
4.97629e-12
3.1332e-11
4.61804e-11
1.85573e-13
1.01182e-14
8.2655e-14
1.09233e-13
1.89983e-13
5.84568e-13
3.37458e-13
1.11201e-12
8.52002e-14
1.49959e-12
4.63932e-14
1.01182e-14
2.06637e-14
1.56046e-14
1.89983e-13
8.35097e-14
8.43644e-14
3.57857e-13
2.13e-14
4.50637e-13
2.31966e-14
1.01182e-14
3.3062e-13
4.83744e-13
1.89983e-13
2.5888e-12
1.34983e-12
4.12861e-12
3.40801e-13
4.97629e-12
3.1332e-11
4.63874e-11
1.85573e-13
1.01182e-14
8.2655e-14
1.09233e-13
1.89983e-13
5.84568e-13
3.37458e-13
1.11201e-12
8.52002e-14
1.49959e-12
4.63932e-14
1.01182e-14
2.06637e-14
1.56046e-14
1.89983e-13
8.35097e-14
8.43644e-14
3.57857e-13
2.13e-14
4.50637e-13
2.31966e-14
1.01182e-14
3.3062e-13
4.83744e-13
1.89983e-13
2.5888e-12
1.34983e-12
4.12861e-12
3.40801e-13
4.97629e-12
3.1332e-11
4.63634e-11
1.85573e-13
1.01182e-14
8.2655e-14
1.09233e-13
1.89983e-13
5.84568e-13
3.37458e-13
1.11201e-12
8.52002e-14
1.49959e-12
4.63932e-14
1.01182e-14
2.06637e-14
1.56046e-14
1.89983e-13
8.35097e-14
8.43644e-14
3.57857e-13
2.13e-14
4.50637e-13
2.31966e-14
1.01182e-14
3.3062e-13
4.83744e-13
1.89983e-13
2.5888e-12
1.34983e-12
4.12861e-12
3.40801e-13
4.97629e-12
3.1332e-11
4.68739e-11
1.85573e-13
1.01182e-14
8.2655e-14
1.09233e-13
1.89983e-13
5.84568e-13
3.37458e-13
1.11201e-12
8.52002e-14
1.49959e-12
4.63932e-14
1.01182e-14
2.06637e-14
1.56046e-14
1.89983e-13
8.35097e-14
8.43644e-14
3.57857e-13
2.13e-14
4.50637e-13
2.31966e-14
1.01182e-14
3.3062e-13
4.83744e-13
1.89983e-13
2.5888e-12
1.34983e-12
4.12861e-12
3.40801e-13
4.97629e-12
3.1332e-11
4.61987e-11
1.85573e-13
1.01182e-14
8.2655e-14
1.09233e-13
1.89983e-13
5.84568e-13
3.37458e-13
1.11201e-12
8.52002e-14
1.49959e-12
4.63932e-14
1.01182e-14
2.06637e-14
1.56046e-14
1.89983e-13
8.35097e-14
8.43644e-14
3.57857e-13
2.13e-14
4.50637e-13
2.31966e-14
1.01182e-14
3.3062e-13
4.83744e-13
1.89983e-13
2.5888e-12
1.34983e-12
4.12861e-12
3.40801e-13
4.97629e-12
3.1332e-11
4.62658e-11
1.85573e-13
1.01182e-14
8.2655e-14
1.09233e-13
1.89983e-13
5.84568e-13
3.37458e-13
1.11201e-12
8.52002e-14
1.49959e-12
4.63932e-14
1.01182e-14
2.06637e-14
1.56046e-14
1.89983e-13
8.35097e-14
8.43644e-14
3.57857e-13
2.13e-14
4.50637e-13
2.31966e-14
1.01182e-14
3.3062e-13
4.83744e-13
1.89983e-13
2.5888e-12
1.34983e-12
4.12861e-12
3.40801e-13
4.97629e-12
3.1332e-11
4.68803e-11
1.85573e-13
1.01182e-14
8.2655e-14
1.09233e-13
1.89983e-13
5.84568e-13
3.37458e-13
1.11201e-12
8.52002e-14
1.49959e-12
4.63932e-14
1.01182e-14
2.06637e-14
1.56046e-14
1.89983e-13
8.35097e-14
8.43644e-14
3.57857e-13
2.13e-14
4.50637e-13
2.31966e-14
1.01182e-14
3.3062e-13
4.83744e-13
1.89983e-13
2.5888e-12
1.34983e-12
4.12861e-12
3.40801e-13
4.97629e-12
3.1332e-11
4.64304e-11
1.85573e-13
1.01182e-14
8.2655e-14
1.09233e-13
1.89983e-13
5.84568e-13
3.37458e-13
1.11201e-12
8.52002e-14
1.49959e-12
4.63932e-14
1.01182e-14
2.06637e-14
1.56046e-14
1.89983e-13
8.35097e-14
8.43644e-14
3.57857e-13
2.13e-14
4.50637e-13
2.31966e-14
1.01182e-14
3.3062e-13
4.83744e-13
1.89983e-13
2.5888e-12
1.34983e-12
4.12861e-12
3.40801e-13
4.97629e-12
3.1332e-11
4.64355e-11
1.85573e-13
1.01182e-14
8.2655e-14
1.09233e-13
1.89983e-13
5.84568e-13
3.37458e-13
1.11201e-12
8.52002e-14
1.49959e-12
4.63932e-14
1.01182e-14
2.06637e-14
1.56046e-14
1.89983e-13
8.35097e-14
8.43644e-14
3.57857e-13
2.13e-14
4.50637e-13
2.31966e-14
1.01182e-14
3.3062e-13
4.83744e-13
1.89983e-13
2.5888e-12
1.34983e-12
4.12861e-12
3.40801e-13
4.97629e-12
3.1332e-11
4.6602e-11
1.85573e-13
1.01182e-14
8.2655e-14
1.09233e-13
1.89983e-13
5.84568e-13
3.37458e-13
1.11201e-12
8.52002e-14
1.49959e-12
4.63932e-14
1.01182e-14
2.06637e-14
1.56046e-14
1.89983e-13
8.35097e-14
8.43644e-14
3.57857e-13
2.13e-14
4.50637e-13
2.31966e-14
1.01182e-14
3.3062e-13
4.83744e-13
1.89983e-13
2.5888e-12
1.34983e-12
4.12861e-12
3.40801e-13
4.97629e-12
3.1332e-11
4.66255e-11
1.85573e-13
1.01182e-14
8.2655e-14
1.09233e-13
1.89983e-13
5.84568e-13
3.37458e-13
1.11201e-12
8.52002e-14
1.49959e-12
4.63932e-14
1.01182e-14
2.06637e-14
1.56046e-14
1.89983e-13
8.35097e-14
8.43644e-14
3.57857e-13
2.13e-14
4.50637e-13
2.31966e-14
1.01182e-14
3.3062e-13
4.83744e-13
1.89983e-13
2.5888e-12
1.34983e-12
4.12861e-12
3.40801e-13
4.97629e-12
3.1332e-11
4.76753e-11
1.85573e-13
1.01182e-14
8.2655e-14
1.09233e-13
1.89983e-13
5.84568e-13
3.37458e-13
1.11201e-12
8.52002e-14
1.49959e-12
4.63932e-14
1.01182e-14
2.06637e-14
1.56046e-14
1.89983e-13
8.35097e-14
8.43644e-14
3.57857e-13
2.13e-14
4.50637e-13
2.31966e-14
1.01182e-14
3.3062e-13
4.83744e-13
1.89983e-13
2.5888e-12
1.34983e-12
4.12861e-12
3.40801e-13
4.97629e-12
3.1332e-11
4.62552e-11
1.85573e-13
1.01182e-14
8.2655e-14
1.09233e-13
1.89983e-13
5.84568e-13
3.37458e-13
1.11201e-12
8.52002e-14
1.49959e-12
4.63932e-14
1.01182e-14
2.06637e-14
1.56046e-14
1.89983e-13
8.35097e-14
8.43644e-14
3.57857e-13
2.13e-14
4.50637e-13
2.31966e-14
1.01182e-14
3.3062e-13
4.83744e-13
1.89983e-13
2.5888e-12
1.34983e-12
4.12861e-12
3.40801e-13
4.97629e-12
3.1332e-11
4.72372e-11
1.85573e-13
1.01182e-14
8.2655e-14
1.09233e-13
1.89983e-13
5.84568e-13
3.37458e-13
1.11201e-12
8.52002e-14
1.49959e-12
4.63932e-14
1.01182e-14
2.06637e-14
1.56046e-14
1.89983e-13
8.35097e-14
8.43644e-14
3.57857e-13
2.13e-14
4.50637e-13
2.31966e-14
1.01182e-14
3.3062e-13
4.83744e-13
1.89983e-13
2.5888e-12
1.34983e-12
4.12861e-12
3.40801e-13
4.97629e-12
3.1332e-11
4.64304e-11
1.85573e-13
1.01182e-14
8.2655e-14
1.09233e-13
1.89983e-13
5.84568e-13
3.37458e-13
1.11201e-12
8.52002e-14
1.49959e-12
4.63932e-14
1.01182e-14
2.06637e-14
1.56046e-14
1.89983e-13
8.35097e-14
8.43644e-14
3.57857e-13
2.13e-14
4.50637e-13
2.31966e-14
1.01182e-14
3.3062e-13
4.83744e-13
1.89983e-13
2.5888e-12
1.34983e-12
4.12861e-12
3.40801e-13
4.97629e-12
3.1332e-11
4.72048e-11
1.85573e-13
1.01182e-14
8.2655e-14
1.09233e-13
1.89983e-13
5.84568e-13
3.37458e-13
1.11201e-12
8.52002e-14
1.49959e-12
4.63932e-14
1.01182e-14
2.06637e-14
1.56046e-14
1.89983e-13
8.35097e-14
8.43644e-14
3.57857e-13
2.13e-14
4.50637e-13
2.31966e-14
1.01182e-14
3.3062e-13
4.83744e-13
1.89983e-13
2.5888e-12
1.34983e-12
4.12861e-12
3.40801e-13
4.97629e-12
3.25105e-11
4.77197e-11
1.85573e-13
1.01182e-14
8.2655e-14
1.09233e-13
1.89983e-13
5.84568e-13
3.37458e-13
1.11201e-12
8.52002e-14
1.49959e-12
4.63932e-14
1.01182e-14
2.06637e-14
1.56046e-14
1.89983e-13
8.35097e-14
8.43644e-14
3.57857e-13
2.13e-14
4.50637e-13
2.31966e-14
1.01182e-14
3.3062e-13
4.83744e-13
1.89983e-13
2.5888e-12
1.34983e-12
4.12861e-12
3.40801e-13
4.97629e-12
3.25105e-11
4.8496e-11
1.85573e-13
1.01182e-14
8.2655e-14
1.09233e-13
1.89983e-13
5.84568e-13
3.37458e-13
1.11201e-12
8.52002e-14
1.49959e-12
4.63932e-14
1.01182e-14
2.06637e-14
1.56046e-14
1.89983e-13
8.35097e-14
8.43644e-14
3.57857e-13
2.13e-14
4.50637e-13
2.31966e-14
1.01182e-14
3.3062e-13
4.83744e-13
1.89983e-13
2.5888e-12
1.34983e-12
4.12861e-12
3.40801e-13
4.97629e-12
3.25105e-11
4.75959e-11
1.85573e-13
1.01182e-14
8.2655e-14
1.09233e-13
1.89983e-13
5.84568e-13
3.37458e-13
1.11201e-12
8.52002e-14
1.49959e-12
4.63932e-14
1.01182e-14
2.06637e-14
1.56046e-14
1.89983e-13
8.35097e-14
8.43644e-14
3.57857e-13
2.13e-14
4.50637e-13
2.31966e-14
1.01182e-14
3.3062e-13
4.83744e-13
1.89983e-13
2.5888e-12
1.34983e-12
4.12861e-12
3.40801e-13
4.97629e-12
3.25105e-11
4.76171e-11
1.85573e-13
1.01182e-14
8.2655e-14
1.09233e-13
1.89983e-13
5.84568e-13
3.37458e-13
1.11201e-12
8.52002e-14
1.49959e-12
4.63932e-14
1.01182e-14
2.06637e-14
1.56046e-14
1.89983e-13
8.35097e-14
8.43644e-14
3.57857e-13
2.13e-14
4.50637e-13
2.31966e-14
1.01182e-14
3.3062e-13
4.83744e-13
1.89983e-13
2.5888e-12
1.34983e-12
4.12861e-12
3.40801e-13
4.97629e-12
3.25105e-11
4.89608e-11
1.85573e-13
1.01182e-14
8.2655e-14
1.09233e-13
1.89983e-13
5.84568e-13
3.37458e-13
1.11201e-12
8.52002e-14
1.49959e-12
4.63932e-14
1.01182e-14
2.06637e-14
1.56046e-14
1.89983e-13
8.35097e-14
8.43644e-14
3.57857e-13
2.13e-14
4.50637e-13
2.31966e-14
1.01182e-14
3.3062e-13
4.83744e-13
1.89983e-13
2.5888e-12
1.34983e-12
4.12861e-12
3.40801e-13
4.97629e-12
3.25105e-11
4.76919e-11
1.85573e-13
1.01182e-14
8.2655e-14
1.09233e-13
1.89983e-13
5.84568e-13
3.37458e-13
1.11201e-12
8.52002e-14
1.49959e-12
4.63932e-14
1.01182e-14
2.06637e-14
1.56046e-14
1.89983e-13
8.35097e-14
8.43644e-14
3.57857e-13
2.13e-14
4.50637e-13
2.31966e-14
1.01182e-14
3.3062e-13
4.83744e-13
1.89983e-13
2.5888e-12
1.34983e-12
4.12861e-12
3.40801e-13
4.97629e-12
3.25105e-11
4.81942e-11
1.85573e-13
1.01182e-14
8.2655e-14
1.09233e-13
1.89983e-13
5.84568e-13
3.37458e-13
1.11201e-12
8.52002e-14
1.49959e-12
4.63932e-14
1.01182e-14
2.06637e-14
1.56046e-14
1.89983e-13
8.35097e-14
8.43644e-14
3.57857e-13
2.13e-14
4.50637e-13
2.31966e-14
1.01182e-14
3.3062e-13
4.83744e-13
1.89983e-13
2.5888e-12
1.34983e-12
4.12861e-12
3.40801e-13
4.97629e-12
3.25105e-11
4.85189e-11
1.85573e-13
1.01182e-14
8.2655e-14
1.09233e-13
1.89983e-13
5.84568e-13
3.37458e-13
1.11201e-12
8.52002e-14
1.49959e-12
4.63932e-14
1.01182e-14
2.06637e-14
1.56046e-14
1.89983e-13
8.35097e-14
8.43644e-14
3.57857e-13
2.13e-14
4.50637e-13
2.31966e-14
1.01182e-14
3.3062e-13
4.83744e-13
1.89983e-13
2.5888e-12
1.34983e-12
4.12861e-12
3.40801e-13
4.97629e-12
3.25105e-11
4.81967e-11
1.85573e-13
1.01182e-14
8.2655e-14
1.09233e-13
1.89983e-13
5.84568e-13
3.37458e-13
1.11201e-12
8.52002e-14
1.49959e-12
4.63932e-14
1.01182e-14
2.06637e-14
1.56046e-14
1.89983e-13
8.35097e-14
8.43644e-14
3.57857e-13
2.13e-14
4.50637e-13
2.31966e-14
1.01182e-14
3.3062e-13
4.83744e-13
1.89983e-13
2.5888e-12
1.34983e-12
4.12861e-12
3.40801e-13
4.97629e-12
3.25105e-11
4.7691e-11
1.85573e-13
1.01182e-14
8.2655e-14
1.09233e-13
1.89983e-13
5.84568e-13
3.37458e-13
1.11201e-12
8.52002e-14
1.49959e-12
4.63932e-14
1.01182e-14
2.06637e-14
1.56046e-14
1.89983e-13
8.35097e-14
8.43644e-14
3.57857e-13
2.13e-14
4.50637e-13
2.31966e-14
1.01182e-14
3.3062e-13
4.83744e-13
1.89983e-13
2.5888e-12
1.34983e-12
4.12861e-12
3.40801e-13
4.97629e-12
3.25105e-11
4.7639e-11
1.85573e-13
1.01182e-14
8.2655e-14
1.09233e-13
1.89983e-13
5.84568e-13
3.37458e-13
1.11201e-12
8.52002e-14
1.49959e-12
4.63932e-14
1.01182e-14
2.06637e-14
1.56046e-14
1.89983e-13
8.35097e-14
8.43644e-14
3.57857e-13
2.13e-14
4.50637e-13
2.31966e-14
1.01182e-14
3.3062e-13
4.83744e-13
1.89983e-13
2.5888e-12
1.34983e-12
4.12861e-12
3.40801e-13
4.97629e-12
3.25105e-11
4.81681e-11
1.85573e-13
1.01182e-14
8.2655e-14
1.09233e-13
1.89983e-13
5.84568e-13
3.37458e-13
1.11201e-12
8.52002e-14
1.49959e-12
4.63932e-14
1.01182e-14
2.06637e-14
1.56046e-14
1.89983e-13
8.35097e-14
8.43644e-14
3.57857e-13
2.13e-14
4.50637e-13
2.31966e-14
1.01182e-14
3.3062e-13
4.83744e-13
1.89983e-13
2.5888e-12
1.34983e-12
4.12861e-12
3.40801e-13
4.97629e-12
3.25105e-11
4.75229e-11
1.85573e-13
1.01182e-14
8.2655e-14
1.09233e-13
1.89983e-13
5.84568e-13
3.37458e-13
1.11201e-12
8.52002e-14
1.49959e-12
4.63932e-14
1.01182e-14
2.06637e-14
1.56046e-14
1.89983e-13
8.35097e-14
8.43644e-14
3.57857e-13
2.13e-14
4.50637e-13
2.31966e-14
1.01182e-14
3.3062e-13
4.83744e-13
1.89983e-13
2.5888e-12
1.34983e-12
4.12861e-12
3.40801e-13
4.97629e-12
3.25105e-11
4.7575e-11
1.85573e-13
1.01182e-14
8.2655e-14
1.09233e-13
1.89983e-13
5.84568e-13
3.37458e-13
1.11201e-12
8.52002e-14
1.49959e-12
4.63932e-14
1.01182e-14
2.06637e-14
1.56046e-14
1.89983e-13
8.35097e-14
8.43644e-14
3.57857e-13
2.13e-14
4.50637e-13
2.31966e-14
1.01182e-14
3.3062e-13
4.83744e-13
1.89983e-13
2.5888e-12
1.34983e-12
4.12861e-12
3.40801e-13
4.97629e-12
3.25105e-11
4.78732e-11
1.85573e-13
1.01182e-14
8.2655e-14
1.09233e-13
1.89983e-13
5.84568e-13
3.37458e-13
1.11201e-12
8.52002e-14
1.49959e-12
4.63932e-14
1.01182e-14
2.06637e-14
1.56046e-14
1.89983e-13
8.35097e-14
8.43644e-14
3.57857e-13
2.13e-14
4.50637e-13
2.31966e-14
1.01182e-14
3.3062e-13
4.83744e-13
1.89983e-13
2.5888e-12
1.34983e-12
4.12861e-12
3.40801e-13
4.97629e-12
3.25105e-11
4.73915e-11
1.85573e-13
1.01182e-14
8.2655e-14
1.09233e-13
1.89983e-13
5.84568e-13
3.37458e-13
1.11201e-12
8.52002e-14
1.49959e-12
4.63932e-14
1.01182e-14
2.06637e-14
1.56046e-14
1.89983e-13
8.35097e-14
8.43644e-14
3.57857e-13
2.13e-14
4.50637e-13
2.31966e-14
1.01182e-14
3.3062e-13
4.83744e-13
1.89983e-13
2.5888e-12
1.34983e-12
4.12861e-12
3.40801e-13
4.97629e-12
3.3689e-11
4.88721e-11
1.85573e-13
1.01182e-14
8.2655e-14
1.09233e-13
1.89983e-13
5.84568e-13
3.37458e-13
1.11201e-12
8.52002e-14
1.49959e-12
4.63932e-14
1.01182e-14
2.06637e-14
1.56046e-14
1.89983e-13
8.35097e-14
8.43644e-14
3.57857e-13
2.13e-14
4.50637e-13
2.31966e-14
1.01182e-14
3.3062e-13
4.83744e-13
1.89983e-13
2.5888e-12
1.34983e-12
4.12861e-12
3.40801e-13
4.97629e-12
3.3689e-11
4.96193e-11
1.85573e-13
1.01182e-14
8.2655e-14
1.09233e-13
1.89983e-13
5.84568e-13
3.37458e-13
1.11201e-12
8.52002e-14
1.49959e-12
4.63932e-14
1.01182e-14
2.06637e-14
1.56046e-14
1.89983e-13
8.35097e-14
8.43644e-14
3.57857e-13
2.13e-14
4.50637e-13
2.31966e-14
1.01182e-14
3.3062e-13
4.83744e-13
1.89983e-13
2.5888e-12
1.34983e-12
4.12861e-12
3.40801e-13
4.97629e-12
3.3689e-11
4.87782e-11
1.85573e-13
1.01182e-14
8.2655e-14
1.09233e-13
1.89983e-13
5.84568e-13
3.37458e-13
1.11201e-12
8.52002e-14
1.49959e-12
4.63932e-14
1.01182e-14
2.06637e-14
1.56046e-14
1.89983e-13
8.35097e-14
8.43644e-14
3.57857e-13
2.13e-14
4.50637e-13
2.31966e-14
1.01182e-14
3.3062e-13
4.83744e-13
1.89983e-13
2.5888e-12
1.34983e-12
4.12861e-12
3.40801e-13
4.97629e-12
3.3689e-11
4.88357e-11
1.85573e-13
1.01182e-14
8.2655e-14
1.09233e-13
1.89983e-13
5.84568e-13
3.37458e-13
1.11201e-12
8.52002e-14
1.49959e-12
4.63932e-14
1.01182e-14
2.06637e-14
1.56046e-14
1.89983e-13
8.35097e-14
8.43644e-14
3.57857e-13
2.13e-14
4.50637e-13
2.31966e-14
1.01182e-14
3.3062e-13
4.83744e-13
1.89983e-13
2.5888e-12
1.34983e-12
4.12861e-12
3.40801e-13
4.97629e-12
3.3689e-11
5.00956e-11
1.85573e-13
1.01182e-14
8.2655e-14
1.09233e-13
1.89983e-13
5.84568e-13
3.37458e-13
1.11201e-12
8.52002e-14
1.49959e-12
4.63932e-14
1.01182e-14
2.06637e-14
1.56046e-14
1.89983e-13
8.35097e-14
8.43644e-14
3.57857e-13
2.13e-14
4.50637e-13
2.31966e-14
1.01182e-14
3.3062e-13
4.83744e-13
1.89983e-13
2.5888e-12
1.34983e-12
4.12861e-12
3.40801e-13
4.97629e-12
3.3689e-11
4.884e-11
1.85573e-13
1.01182e-14
8.2655e-14
1.09233e-13
1.89983e-13
5.84568e-13
3.37458e-13
1.11201e-12
8.52002e-14
1.49959e-12
4.63932e-14
1.01182e-14
2.06637e-14
1.56046e-14
1.89983e-13
8.35097e-14
8.43644e-14
3.57857e-13
2.13e-14
4.50637e-13
2.31966e-14
1.01182e-14
3.3062e-13
4.83744e-13
1.89983e-13
2.5888e-12
1.34983e-12
4.12861e-12
3.40801e-13
4.97629e-12
3.3689e-11
4.93229e-11
1.85573e-13
1.01182e-14
8.2655e-14
1.09233e-13
1.89983e-13
5.84568e-13
3.37458e-13
1.11201e-12
8.52002e-14
1.49959e-12
4.63932e-14
1.01182e-14
2.06637e-14
1.56046e-14
1.89983e-13
8.35097e-14
8.43644e-14
3.57857e-13
2.13e-14
4.50637e-13
2.31966e-14
1.01182e-14
3.3062e-13
4.83744e-13
1.89983e-13
2.5888e-12
1.34983e-12
4.12861e-12
3.40801e-13
4.97629e-12
3.3689e-11
4.96593e-11
1.85573e-13
1.01182e-14
8.2655e-14
1.09233e-13
1.89983e-13
5.84568e-13
3.37458e-13
1.11201e-12
8.52002e-14
1.49959e-12
4.63932e-14
1.01182e-14
2.06637e-14
1.56046e-14
1.89983e-13
8.35097e-14
8.43644e-14
3.57857e-13
2.13e-14
4.50637e-13
2.31966e-14
1.01182e-14
3.3062e-13
4.83744e-13
1.89983e-13
2.5888e-12
1.34983e-12
4.12861e-12
3.40801e-13
4.97629e-12
3.3689e-11
4.92763e-11
1.85573e-13
1.01182e-14
8.2655e-14
1.09233e-13
1.89983e-13
5.84568e-13
3.37458e-13
1.11201e-12
8.52002e-14
1.49959e-12
4.63932e-14
1.01182e-14
2.06637e-14
1.56046e-14
1.89983e-13
8.35097e-14
8.43644e-14
3.57857e-13
2.13e-14
4.50637e-13
2.31966e-14
1.01182e-14
3.3062e-13
4.83744e-13
1.89983e-13
2.5888e-12
1.34983e-12
4.12861e-12
3.40801e-13
4.97629e-12
3.3689e-11
4.8858e-11
1.85573e-13
1.01182e-14
8.2655e-14
1.09233e-13
1.89983e-13
5.84568e-13
3.37458e-13
1.11201e-12
8.52002e-14
1.49959e-12
4.63932e-14
1.01182e-14
2.06637e-14
1.56046e-14
1.89983e-13
8.35097e-14
8.43644e-14
3.57857e-13
2.13e-14
4.50637e-13
2.31966e-14
1.01182e-14
3.3062e-13
4.83744e-13
1.89983e-13
2.5888e-12
1.34983e-12
4.12861e-12
3.40801e-13
4.97629e-12
3.3689e-11
4.88405e-11
1.85573e-13
1.01182e-14
8.2655e-14
1.09233e-13
1.89983e-13
5.84568e-13
3.37458e-13
1.11201e-12
8.52002e-14
1.49959e-12
4.63932e-14
1.01182e-14
2.06637e-14
1.56046e-14
1.89983e-13
8.35097e-14
8.43644e-14
3.57857e-13
2.13e-14
4.50637e-13
2.31966e-14
1.01182e-14
3.3062e-13
4.83744e-13
1.89983e-13
2.5888e-12
1.34983e-12
4.12861e-12
3.40801e-13
4.97629e-12
3.3689e-11
4.92958e-11
1.85573e-13
1.01182e-14
8.2655e-14
1.09233e-13
1.89983e-13
5.84568e-13
3.37458e-13
1.11201e-12
8.52002e-14
1.49959e-12
4.63932e-14
1.01182e-14
2.06637e-14
1.56046e-14
1.89983e-13
8.35097e-14
8.43644e-14
3.57857e-13
2.13e-14
4.50637e-13
2.31966e-14
1.01182e-14
3.3062e-13
4.83744e-13
1.89983e-13
2.5888e-12
1.34983e-12
4.12861e-12
3.40801e-13
4.97629e-12
3.3689e-11
4.86801e-11
1.85573e-13
1.01182e-14
8.2655e-14
1.09233e-13
1.89983e-13
5.84568e-13
3.37458e-13
1.11201e-12
8.52002e-14
1.49959e-12
4.63932e-14
1.01182e-14
2.06637e-14
1.56046e-14
1.89983e-13
8.35097e-14
8.43644e-14
3.57857e-13
2.13e-14
4.50637e-13
2.31966e-14
1.01182e-14
3.3062e-13
4.83744e-13
1.89983e-13
2.5888e-12
1.34983e-12
4.12861e-12
3.40801e-13
4.97629e-12
3.3689e-11
4.87554e-11
1.85573e-13
1.01182e-14
8.2655e-14
1.09233e-13
1.89983e-13
5.84568e-13
3.37458e-13
1.11201e-12
8.52002e-14
1.49959e-12
4.63932e-14
1.01182e-14
2.06637e-14
1.56046e-14
1.89983e-13
8.35097e-14
8.43644e-14
3.57857e-13
2.13e-14
4.50637e-13
2.31966e-14
1.01182e-14
3.3062e-13
4.83744e-13
1.89983e-13
2.5888e-12
1.34983e-12
4.12861e-12
3.40801e-13
4.97629e-12
3.3689e-11
4.90611e-11
1.85573e-13
1.01182e-14
8.2655e-14
1.09233e-13
1.89983e-13
5.84568e-13
3.37458e-13
1.11201e-12
8.52002e-14
1.49959e-12
4.63932e-14
1.01182e-14
2.06637e-14
1.56046e-14
1.89983e-13
8.35097e-14
8.43644e-14
3.57857e-13
2.13e-14
4.50637e-13
2.31966e-14
1.01182e-14
3.3062e-13
4.83744e-13
1.89983e-13
2.5888e-12
1.34983e-12
4.12861e-12
3.40801e-13
4.97629e-12
3.3689e-11
4.85255e-11
1.85573e-13
1.01182e-14
8.2655e-14
1.09233e-13
1.89983e-13
5.84568e-13
3.37458e-13
1.11201e-12
8.52002e-14
1.49959e-12
4.63932e-14
1.01182e-14
2.06637e-14
1.56046e-14
1.89983e-13
8.35097e-14
8.43644e-14
3.57857e-13
2.13e-14
4.50637e-13
2.31966e-14
1.01182e-14
3.3062e-13
4.83744e-13
1.89983e-13
2.5888e-12
1.34983e-12
4.12861e-12
3.40801e-13
4.97629e-12
3.48675e-11
5.02741e-11
1.85573e-13
1.01182e-14
8.2655e-14
1.09233e-13
1.89983e-13
5.84568e-13
3.37458e-13
1.11201e-12
8.52002e-14
1.49959e-12
4.63932e-14
1.01182e-14
2.06637e-14
1.56046e-14
1.89983e-13
8.35097e-14
8.43644e-14
3.57857e-13
2.13e-14
4.50637e-13
2.31966e-14
1.01182e-14
3.3062e-13
4.83744e-13
1.89983e-13
2.5888e-12
1.34983e-12
4.12861e-12
3.40801e-13
4.97629e-12
3.48675e-11
5.02816e-11
1.85573e-13
1.01182e-14
8.2655e-14
1.09233e-13
1.89983e-13
5.84568e-13
3.37458e-13
1.11201e-12
8.52002e-14
1.49959e-12
4.63932e-14
1.01182e-14
2.06637e-14
1.56046e-14
1.89983e-13
8.35097e-14
8.43644e-14
3.57857e-13
2.13e-14
4.50637e-13
2.31966e-14
1.01182e-14
3.3062e-13
4.83744e-13
1.89983e-13
2.5888e-12
1.34983e-12
4.12861e-12
3.40801e-13
4.97629e-12
3.48675e-11
5.05655e-11
1.85573e-13
1.01182e-14
8.2655e-14
1.09233e-13
1.89983e-13
5.84568e-13
3.37458e-13
1.11201e-12
8.52002e-14
1.49959e-12
4.63932e-14
1.01182e-14
2.06637e-14
1.56046e-14
1.89983e-13
8.35097e-14
8.43644e-14
3.57857e-13
2.13e-14
4.50637e-13
2.31966e-14
1.01182e-14
3.3062e-13
4.83744e-13
1.89983e-13
2.5888e-12
1.34983e-12
4.12861e-12
3.40801e-13
4.97629e-12
3.48675e-11
5.07286e-11
1.85573e-13
1.01182e-14
8.2655e-14
1.09233e-13
1.89983e-13
5.84568e-13
3.37458e-13
1.11201e-12
8.52002e-14
1.49959e-12
4.63932e-14
1.01182e-14
2.06637e-14
1.56046e-14
1.89983e-13
8.35097e-14
8.43644e-14
3.57857e-13
2.13e-14
4.50637e-13
2.31966e-14
1.01182e-14
3.3062e-13
4.83744e-13
1.89983e-13
2.5888e-12
1.34983e-12
4.12861e-12
3.40801e-13
4.97629e-12
3.48675e-11
5.07395e-11
1.85573e-13
1.01182e-14
8.2655e-14
1.09233e-13
1.89983e-13
5.84568e-13
3.37458e-13
1.11201e-12
8.52002e-14
1.49959e-12
4.63932e-14
1.01182e-14
2.06637e-14
1.56046e-14
1.89983e-13
8.35097e-14
8.43644e-14
3.57857e-13
2.13e-14
4.50637e-13
2.31966e-14
1.01182e-14
3.3062e-13
4.83744e-13
1.89983e-13
2.5888e-12
1.34983e-12
4.12861e-12
3.40801e-13
4.97629e-12
3.48675e-11
5.02576e-11
1.85573e-13
1.01182e-14
8.2655e-14
1.09233e-13
1.89983e-13
5.84568e-13
3.37458e-13
1.11201e-12
8.52002e-14
1.49959e-12
4.63932e-14
1.01182e-14
2.06637e-14
1.56046e-14
1.89983e-13
8.35097e-14
8.43644e-14
3.57857e-13
2.13e-14
4.50637e-13
2.31966e-14
1.01182e-14
3.3062e-13
4.83744e-13
1.89983e-13
2.5888e-12
1.34983e-12
4.12861e-12
3.40801e-13
4.97629e-12
3.48675e-11
5.01311e-11
1.85573e-13
1.01182e-14
8.2655e-14
1.09233e-13
1.89983e-13
5.84568e-13
3.37458e-13
1.11201e-12
8.52002e-14
1.49959e-12
4.63932e-14
1.01182e-14
2.06637e-14
1.56046e-14
1.89983e-13
8.35097e-14
8.43644e-14
3.57857e-13
2.13e-14
4.50637e-13
2.31966e-14
1.01182e-14
3.3062e-13
4.83744e-13
1.89983e-13
2.5888e-12
1.34983e-12
4.12861e-12
3.40801e-13
4.97629e-12
3.48675e-11
4.97869e-11
1.85573e-13
1.01182e-14
8.2655e-14
1.09233e-13
1.89983e-13
5.84568e-13
3.37458e-13
1.11201e-12
8.52002e-14
1.49959e-12
4.63932e-14
1.01182e-14
2.06637e-14
1.56046e-14
1.89983e-13
8.35097e-14
8.43644e-14
3.57857e-13
2.13e-14
4.50637e-13
2.31966e-14
1.01182e-14
3.3062e-13
4.83744e-13
1.89983e-13
2.5888e-12
1.34983e-12
4.12861e-12
3.40801e-13
4.97629e-12
3.48675e-11
4.98314e-11
1.85573e-13
1.01182e-14
8.2655e-14
1.09233e-13
1.89983e-13
5.84568e-13
3.37458e-13
1.11201e-12
8.52002e-14
1.49959e-12
4.63932e-14
1.01182e-14
2.06637e-14
1.56046e-14
1.89983e-13
8.35097e-14
8.43644e-14
3.57857e-13
2.13e-14
4.50637e-13
2.31966e-14
1.01182e-14
3.3062e-13
4.83744e-13
1.89983e-13
2.5888e-12
1.34983e-12
4.12861e-12
3.40801e-13
4.97629e-12
3.48675e-11
5.14762e-11
1.85573e-13
1.01182e-14
8.2655e-14
1.09233e-13
1.89983e-13
5.84568e-13
3.37458e-13
1.11201e-12
8.52002e-14
1.49959e-12
4.63932e-14
1.01182e-14
2.06637e-14
1.56046e-14
1.89983e-13
8.35097e-14
8.43644e-14
3.57857e-13
2.13e-14
4.50637e-13
2.31966e-14
1.01182e-14
3.3062e-13
4.83744e-13
1.89983e-13
2.5888e-12
1.34983e-12
4.12861e-12
3.40801e-13
4.97629e-12
3.48675e-11
5.02409e-11
1.85573e-13
1.01182e-14
8.2655e-14
1.09233e-13
1.89983e-13
5.84568e-13
3.37458e-13
1.11201e-12
8.52002e-14
1.49959e-12
4.63932e-14
1.01182e-14
2.06637e-14
1.56046e-14
1.89983e-13
8.35097e-14
8.43644e-14
3.57857e-13
2.13e-14
4.50637e-13
2.31966e-14
1.01182e-14
3.3062e-13
4.83744e-13
1.89983e-13
2.5888e-12
1.34983e-12
4.12861e-12
3.40801e-13
4.97629e-12
3.48675e-11
5.02409e-11
1.85573e-13
1.01182e-14
8.2655e-14
1.09233e-13
1.89983e-13
5.84568e-13
3.37458e-13
1.11201e-12
8.52002e-14
1.49959e-12
4.63932e-14
1.01182e-14
2.06637e-14
1.56046e-14
1.89983e-13
8.35097e-14
8.43644e-14
3.57857e-13
2.13e-14
4.50637e-13
2.31966e-14
1.01182e-14
3.3062e-13
4.83744e-13
1.89983e-13
2.5888e-12
1.34983e-12
4.12861e-12
3.40801e-13
4.97629e-12
3.48675e-11
5.07332e-11
1.85573e-13
1.01182e-14
8.2655e-14
1.09233e-13
1.89983e-13
5.84568e-13
3.37458e-13
1.11201e-12
8.52002e-14
1.49959e-12
4.63932e-14
1.01182e-14
2.06637e-14
1.56046e-14
1.89983e-13
8.35097e-14
8.43644e-14
3.57857e-13
2.13e-14
4.50637e-13
2.31966e-14
1.01182e-14
3.3062e-13
4.83744e-13
1.89983e-13
2.5888e-12
1.34983e-12
4.12861e-12
3.40801e-13
4.97629e-12
3.48675e-11
5.02333e-11
1.85573e-13
1.01182e-14
8.2655e-14
1.09233e-13
1.89983e-13
5.84568e-13
3.37458e-13
1.11201e-12
8.52002e-14
1.49959e-12
4.63932e-14
1.01182e-14
2.06637e-14
1.56046e-14
1.89983e-13
8.35097e-14
8.43644e-14
3.57857e-13
2.13e-14
4.50637e-13
2.31966e-14
1.01182e-14
3.3062e-13
4.83744e-13
1.89983e-13
2.5888e-12
1.34983e-12
4.12861e-12
3.40801e-13
4.97629e-12
3.48675e-11
5.02751e-11
1.85573e-13
1.01182e-14
8.2655e-14
1.09233e-13
1.89983e-13
5.84568e-13
3.37458e-13
1.11201e-12
8.52002e-14
1.49959e-12
4.63932e-14
1.01182e-14
2.06637e-14
1.56046e-14
1.89983e-13
8.35097e-14
8.43644e-14
3.57857e-13
2.13e-14
4.50637e-13
2.31966e-14
1.01182e-14
3.3062e-13
4.83744e-13
1.89983e-13
2.5888e-12
1.34983e-12
4.12861e-12
3.40801e-13
4.97629e-12
3.48675e-11
5.25691e-11
