BEGIN Configuration File: /Users/yash/Projects/wsc-noc-dvfs/final_paper_sims/flatfly/flatfly_queue_pid_inj0.6_cap0.7/config.cfg

// Final Paper Simulation Config
// Topology: flatfly, Policy: queue_pid
// Injection Rate: 0.6, Power Cap: 0.7W

// VC Configuration
read_request_begin_vc  = 0;
read_request_end_vc    = 5;
write_reply_begin_vc   = 2;
write_reply_end_vc     = 7;
read_reply_begin_vc    = 8;
read_reply_end_vc      = 12;
write_request_begin_vc = 10;
write_request_end_vc   = 15;
num_vcs     = 16;
vc_buf_size = 8;
wait_for_tail_credit = 0;
vc_allocator = max_size;
sw_allocator = max_size;
alloc_iters  = 2;
credit_delay   = 2;
routing_delay  = 0;
vc_alloc_delay = 1;
sw_alloc_delay = 1;
st_final_delay = 1;
input_speedup     = 1;
output_speedup    = 1;
internal_speedup  = 1.0;

// Detailed simulation settings (longer runs for accuracy)
sim_type = latency;
warmup_periods = 3;
sim_count = 1;
sample_period  = 10000;
max_samples = 15;
use_read_write = 0;
batch_size = 10000;
latency_thres = 5000;
packet_size = 1;

// Topology

topology = flatfly;
subnets = 1;
c  = 4;
k  = 4;
n  = 2;
x  = 4;
y  = 4;
xr = 2;
yr = 2;
limit = 64;
routing_function = ran_min;


// Traffic - 2 classes with different priorities
// Using uniform traffic with configurable injection rate
// Split injection: 30% control (class 0), 70% batch (class 1)
traffic = uniform;
injection_rate = {0.18,0.42};

// 2-class traffic for SLO-aware policies
classes = 2;
class_priority = {1,0};
class_slo = {50,-1};
priority_policy = static_class;

// Orion power model
use_orion = 1;
Vdd = 1.0;
Orion_tr = 0.2;
Orion_Freq = 1e9;
Orion_inport = 5;
Orion_outport = 5;
Orion_bitwidth = 128;
Orion_vc_class = 1;
Orion_IsSharedBuffIn = 0;
Orion_IsSharedBuffOut = 0;
Orion_crossbar_model = 0;
Orion_crsbar_degree = 4;
Orion_Cxbar_Cxpoint = 0;
Orion_trans_type = 0;
Orion_IsInBuff = 1;
Orion_out_buf_size = 0;
Orion_IsOutBuff = 0;
Orion_buff_type = 0;
Orion_in_arb_model = 1;
Orion_out_arb_model = 1;
Orion_allocator_model = 1;
Orion_in_vc_arb_model = 1;
Orion_out_vc_arb_model = 1;
wire_length = 1.0;

// Power cap
power_cap = 0.7;

// DVFS base settings
dvfs_epoch = 10000;
dvfs_log_interval = 10000;
dvfs_freqs = 1.0;
dvfs_voltages = 1.0;
router_domains = 0;

// Policy-specific settings

dvfs_policy = queue_pid;
dvfs_min_scale = 0.5;
dvfs_max_scale = 1.0;
queue_pid_target = 0.02;
queue_pid_kp = 0.5;
queue_pid_ki = 0.01;
queue_pid_kd = 0.1;
queue_pid_per_router = 1;
queue_pid_headroom_margin = 0.05;
control_class_id = 0;
control_slo_cycles = 50.0;


// Output files
latency_csv = latency.csv;
stall_csv = stalls.csv;
throughput_csv = throughput.csv;
summary_csv = summary.csv;
energy_csv = energy.csv;
epoch_csv = epoch.csv;
dvfs_log = power_log;
output_dir = /Users/yash/Projects/wsc-noc-dvfs/final_paper_sims/flatfly;
run_name = flatfly_queue_pid_inj0.6_cap0.7;

END Configuration File: /Users/yash/Projects/wsc-noc-dvfs/final_paper_sims/flatfly/flatfly_queue_pid_inj0.6_cap0.7/config.cfg
 Flat Bufferfly 
 k = 4 n = 2 c = 4
 each switch - total radix =  10
 # of switches = 16
 # of channels = 96
 # of nodes ( size of network ) = 64
Class 0:
Packet latency average = 19.065
	minimum = 6
	maximum = 80
Network latency average = 19.065
	minimum = 6
	maximum = 80
Slowest packet = 119136
Flit latency average = 19.065
	minimum = 6
	maximum = 80
Slowest flit = 119136
Fragmentation average = 0
	minimum = 0
	maximum = 0
Injected packet rate average = 0.180136
	minimum = 0.1711 (at node 2)
	maximum = 0.1881 (at node 36)
Accepted packet rate average = 0.179808
	minimum = 0.168 (at node 17)
	maximum = 0.1897 (at node 27)
Injected flit rate average = 0.180136
	minimum = 0.1711 (at node 2)
	maximum = 0.1881 (at node 36)
Accepted flit rate average= 0.179808
	minimum = 0.168 (at node 17)
	maximum = 0.1897 (at node 27)
Injected packet length average = 1
Accepted packet length average = 1
Total in-flight flits = 210 (0 measured)
Buffer busy stall rate = 0
Buffer conflict stall rate = 0
Buffer full stall rate = 0
Buffer reserved stall rate = 0.0092625
Crossbar conflict stall rate = 1.48762
Class 1:
Packet latency average = 19.4415
	minimum = 6
	maximum = 77
Network latency average = 18.9877
	minimum = 6
	maximum = 75
Slowest packet = 163565
Flit latency average = 18.9877
	minimum = 6
	maximum = 75
Slowest flit = 163565
Fragmentation average = 0
	minimum = 0
	maximum = 0
Injected packet rate average = 0.419633
	minimum = 0.4089 (at node 18)
	maximum = 0.4322 (at node 45)
Accepted packet rate average = 0.418809
	minimum = 0.3994 (at node 31)
	maximum = 0.4391 (at node 28)
Injected flit rate average = 0.419633
	minimum = 0.4089 (at node 18)
	maximum = 0.4322 (at node 45)
Accepted flit rate average= 0.418809
	minimum = 0.3994 (at node 31)
	maximum = 0.4391 (at node 28)
Injected packet length average = 1
Accepted packet length average = 1
Total in-flight flits = 535 (0 measured)
Buffer busy stall rate = 0
Buffer conflict stall rate = 0
Buffer full stall rate = 0
Buffer reserved stall rate = 0.0221187
Crossbar conflict stall rate = 3.39899
latency change    = 1
throughput change = 1
latency change    = 1
throughput change = 1
DVFS epoch t=10000 total_power=0.768033 headroom=-0.0680334 avg_power=0.768033 domains{0:freq=1,power=0.768033} routers{0:freq=1,power=0.0480081, 1:freq=1,power=0.0480354, 2:freq=1,power=0.0480292, 3:freq=1,power=0.0479905, 4:freq=1,power=0.0479463, 5:freq=1,power=0.0479847, 6:freq=1,power=0.0480142, 7:freq=1,power=0.0479721, 8:freq=1,power=0.0479596, 9:freq=1,power=0.0479888, 10:freq=1,power=0.0480083, 11:freq=1,power=0.0480085, 12:freq=1,power=0.0480352, 13:freq=1,power=0.04801, 14:freq=1,power=0.0480208, 15:freq=1,power=0.0480217}
QUEUE_PID_DIFF: epoch=1 max_occ=0.0171875 avg_occ=0.0117188 budget=0.854214 headroom=-0.0680334
Class 0:
Packet latency average = 21.7721
	minimum = 6
	maximum = 171
Network latency average = 21.7721
	minimum = 6
	maximum = 171
Slowest packet = 501627
Flit latency average = 21.7721
	minimum = 6
	maximum = 171
Slowest flit = 501627
Fragmentation average = 0
	minimum = 0
	maximum = 0
Injected packet rate average = 0.179615
	minimum = 0.17395 (at node 2)
	maximum = 0.18435 (at node 62)
Accepted packet rate average = 0.179387
	minimum = 0.1741 (at node 21)
	maximum = 0.1854 (at node 27)
Injected flit rate average = 0.179615
	minimum = 0.17395 (at node 2)
	maximum = 0.18435 (at node 62)
Accepted flit rate average= 0.179387
	minimum = 0.1741 (at node 21)
	maximum = 0.1854 (at node 27)
Injected packet length average = 1
Accepted packet length average = 1
Total in-flight flits = 292 (0 measured)
Buffer busy stall rate = 0
Buffer conflict stall rate = 0
Buffer full stall rate = 0
Buffer reserved stall rate = 0.0403563
Crossbar conflict stall rate = 1.77613
Class 1:
Packet latency average = 22.1578
	minimum = 6
	maximum = 190
Network latency average = 21.7065
	minimum = 6
	maximum = 187
Slowest packet = 501200
Flit latency average = 21.7065
	minimum = 6
	maximum = 187
Slowest flit = 501200
Fragmentation average = 0
	minimum = 0
	maximum = 0
Injected packet rate average = 0.419726
	minimum = 0.4102 (at node 30)
	maximum = 0.42585 (at node 44)
Accepted packet rate average = 0.419216
	minimum = 0.40595 (at node 16)
	maximum = 0.4327 (at node 28)
Injected flit rate average = 0.419726
	minimum = 0.4102 (at node 30)
	maximum = 0.42585 (at node 44)
Accepted flit rate average= 0.419216
	minimum = 0.40595 (at node 16)
	maximum = 0.4327 (at node 28)
Injected packet length average = 1
Accepted packet length average = 1
Total in-flight flits = 658 (0 measured)
Buffer busy stall rate = 0
Buffer conflict stall rate = 0
Buffer full stall rate = 0
Buffer reserved stall rate = 0.0916094
Crossbar conflict stall rate = 4.08539
latency change    = 0.124337
throughput change = 0.00234741
latency change    = 0.122589
throughput change = 0.000969072
DVFS epoch t=20000 total_power=0.722548 headroom=-0.0225477 avg_power=0.745291 domains{0:freq=0.769643,power=0.722548} routers{0:freq=0.769643,power=0.0399003, 1:freq=0.927107,power=0.0462534, 2:freq=0.927107,power=0.0462541, 3:freq=0.926781,power=0.0462461, 4:freq=0.927107,power=0.0462527, 5:freq=0.927107,power=0.0462471, 6:freq=0.926781,power=0.046226, 7:freq=0.779219,power=0.0403244, 8:freq=0.927107,power=0.0462175, 9:freq=0.927107,power=0.0462142, 10:freq=0.798426,power=0.0411282, 11:freq=0.927107,power=0.0462459, 12:freq=0.927107,power=0.0462582, 13:freq=0.927107,power=0.0462721, 14:freq=0.927107,power=0.0462645, 15:freq=0.927107,power=0.046243}
QUEUE_PID_DIFF: epoch=2 max_occ=0.0539063 avg_occ=0.020166 budget=0.951683 headroom=-0.0225477
Class 0:
Packet latency average = 37.785
	minimum = 6
	maximum = 253
Network latency average = 37.785
	minimum = 6
	maximum = 253
Slowest packet = 911086
Flit latency average = 37.785
	minimum = 6
	maximum = 253
Slowest flit = 911086
Fragmentation average = 0
	minimum = 0
	maximum = 0
Injected packet rate average = 0.178775
	minimum = 0.1696 (at node 25)
	maximum = 0.1874 (at node 31)
Accepted packet rate average = 0.178512
	minimum = 0.1647 (at node 34)
	maximum = 0.1873 (at node 41)
Injected flit rate average = 0.178775
	minimum = 0.1696 (at node 25)
	maximum = 0.1874 (at node 31)
Accepted flit rate average= 0.178512
	minimum = 0.1647 (at node 34)
	maximum = 0.1873 (at node 41)
Injected packet length average = 1
Accepted packet length average = 1
Total in-flight flits = 460 (0 measured)
Buffer busy stall rate = 0
Buffer conflict stall rate = 0.00105
Buffer full stall rate = 0
Buffer reserved stall rate = 0.144431
Crossbar conflict stall rate = 3.82428
Class 1:
Packet latency average = 37.9464
	minimum = 6
	maximum = 341
Network latency average = 37.5028
	minimum = 6
	maximum = 340
Slowest packet = 871001
Flit latency average = 37.5028
	minimum = 6
	maximum = 340
Slowest flit = 871001
Fragmentation average = 0
	minimum = 0
	maximum = 0
Injected packet rate average = 0.419759
	minimum = 0.4084 (at node 47)
	maximum = 0.4269 (at node 28)
Accepted packet rate average = 0.41912
	minimum = 0.4029 (at node 14)
	maximum = 0.4363 (at node 63)
Injected flit rate average = 0.419759
	minimum = 0.4084 (at node 47)
	maximum = 0.4269 (at node 28)
Accepted flit rate average= 0.41912
	minimum = 0.4029 (at node 14)
	maximum = 0.4363 (at node 63)
Injected packet length average = 1
Accepted packet length average = 1
Total in-flight flits = 1074 (0 measured)
Buffer busy stall rate = 0
Buffer conflict stall rate = 0.00324375
Buffer full stall rate = 0
Buffer reserved stall rate = 0.350375
Crossbar conflict stall rate = 8.89025
latency change    = 0.423789
throughput change = 0.00489724
latency change    = 0.416077
throughput change = 0.000227411
Warmed up ...Time used is 30000 cycles
DVFS epoch t=30000 total_power=0.644672 headroom=0.0553276 avg_power=0.711751 domains{0:freq=0.785094,power=0.644672} routers{0:freq=0.785094,power=0.0415236, 1:freq=0.768353,power=0.0407586, 2:freq=0.749532,power=0.0399621, 3:freq=0.75599,power=0.0402544, 4:freq=0.752748,power=0.0401252, 5:freq=0.743633,power=0.0397501, 6:freq=0.75599,power=0.0403035, 7:freq=0.788244,power=0.0416331, 8:freq=0.746667,power=0.0398789, 9:freq=0.727939,power=0.0391435, 10:freq=0.802305,power=0.0421344, 11:freq=0.728058,power=0.0391246, 12:freq=0.752791,power=0.0401797, 13:freq=0.765512,power=0.0406278, 14:freq=0.734072,power=0.0393742, 15:freq=0.746624,power=0.0398985}
QUEUE_PID_DIFF: epoch=3 max_occ=0.06875 avg_occ=0.045459 budget=1 headroom=0.0553276
Class 0:
Packet latency average = 45.626
	minimum = 6
	maximum = 761
Network latency average = 45.626
	minimum = 6
	maximum = 761
Slowest packet = 1358684
Flit latency average = 45.6661
	minimum = 6
	maximum = 761
Slowest flit = 1358684
Fragmentation average = 0
	minimum = 0
	maximum = 0
Injected packet rate average = 0.180041
	minimum = 0.1711 (at node 8)
	maximum = 0.1887 (at node 46)
Accepted packet rate average = 0.179927
	minimum = 0.1667 (at node 48)
	maximum = 0.1885 (at node 57)
Injected flit rate average = 0.180041
	minimum = 0.1711 (at node 8)
	maximum = 0.1887 (at node 46)
Accepted flit rate average= 0.179927
	minimum = 0.1667 (at node 48)
	maximum = 0.1885 (at node 57)
Injected packet length average = 1
Accepted packet length average = 1
Total in-flight flits = 533 (533 measured)
Buffer busy stall rate = 0.00119375
Buffer conflict stall rate = 0.018025
Buffer full stall rate = 0
Buffer reserved stall rate = 0.465494
Crossbar conflict stall rate = 4.11709
Class 1:
Packet latency average = 45.8143
	minimum = 6
	maximum = 750
Network latency average = 45.3627
	minimum = 6
	maximum = 750
Slowest packet = 1262819
Flit latency average = 45.3989
	minimum = 6
	maximum = 750
Slowest flit = 1262819
Fragmentation average = 0
	minimum = 0
	maximum = 0
Injected packet rate average = 0.4204
	minimum = 0.4076 (at node 8)
	maximum = 0.4322 (at node 20)
Accepted packet rate average = 0.420122
	minimum = 0.4053 (at node 2)
	maximum = 0.436 (at node 26)
Injected flit rate average = 0.4204
	minimum = 0.4076 (at node 8)
	maximum = 0.4322 (at node 20)
Accepted flit rate average= 0.420122
	minimum = 0.4053 (at node 2)
	maximum = 0.436 (at node 26)
Injected packet length average = 1
Accepted packet length average = 1
Total in-flight flits = 1245 (1245 measured)
Buffer busy stall rate = 0.00235625
Buffer conflict stall rate = 0.0368625
Buffer full stall rate = 0
Buffer reserved stall rate = 1.10536
Crossbar conflict stall rate = 9.53524
latency change    = 0.171854
throughput change = 0.00785911
latency change    = 0.171734
throughput change = 0.00238398
DVFS epoch t=40000 total_power=0.661241 headroom=0.0387586 avg_power=0.699124 domains{0:freq=0.800453,power=0.661241} routers{0:freq=0.800453,power=0.0431001, 1:freq=0.688988,power=0.038391, 2:freq=0.77818,power=0.0421292, 3:freq=0.780626,power=0.0421929, 4:freq=0.772733,power=0.0419664, 5:freq=0.778091,power=0.0420859, 6:freq=0.783009,power=0.0423812, 7:freq=0.688011,power=0.0383493, 8:freq=0.768675,power=0.0416777, 9:freq=0.753729,power=0.0410873, 10:freq=0.680485,power=0.0380249, 11:freq=0.757165,power=0.0412501, 12:freq=0.778489,power=0.0421231, 13:freq=0.788524,power=0.0425259, 14:freq=0.772593,power=0.041896, 15:freq=0.776741,power=0.0420604}
QUEUE_PID_DIFF: epoch=4 max_occ=0.13125 avg_occ=0.0551758 budget=1 headroom=0.0387586
Class 0:
Packet latency average = 60.7815
	minimum = 6
	maximum = 761
Network latency average = 60.7815
	minimum = 6
	maximum = 761
Slowest packet = 1358684
Flit latency average = 60.7713
	minimum = 6
	maximum = 761
Slowest flit = 1358684
Fragmentation average = 0
	minimum = 0
	maximum = 0
Injected packet rate average = 0.180001
	minimum = 0.17455 (at node 8)
	maximum = 0.1854 (at node 45)
Accepted packet rate average = 0.179656
	minimum = 0.1711 (at node 48)
	maximum = 0.18825 (at node 30)
Injected flit rate average = 0.180001
	minimum = 0.17455 (at node 8)
	maximum = 0.1854 (at node 45)
Accepted flit rate average= 0.179656
	minimum = 0.1711 (at node 48)
	maximum = 0.18825 (at node 30)
Injected packet length average = 1
Accepted packet length average = 1
Total in-flight flits = 901 (901 measured)
Buffer busy stall rate = 0.00149687
Buffer conflict stall rate = 0.0596344
Buffer full stall rate = 2.1875e-05
Buffer reserved stall rate = 0.750275
Crossbar conflict stall rate = 5.32737
Class 1:
Packet latency average = 60.8875
	minimum = 6
	maximum = 750
Network latency average = 60.4361
	minimum = 6
	maximum = 750
Slowest packet = 1262819
Flit latency average = 60.4241
	minimum = 6
	maximum = 750
Slowest flit = 1262819
Fragmentation average = 0
	minimum = 0
	maximum = 0
Injected packet rate average = 0.419663
	minimum = 0.4107 (at node 6)
	maximum = 0.4273 (at node 20)
Accepted packet rate average = 0.418781
	minimum = 0.4037 (at node 40)
	maximum = 0.43115 (at node 10)
Injected flit rate average = 0.419663
	minimum = 0.4107 (at node 6)
	maximum = 0.4273 (at node 20)
Accepted flit rate average= 0.418781
	minimum = 0.4037 (at node 40)
	maximum = 0.43115 (at node 10)
Injected packet length average = 1
Accepted packet length average = 1
Total in-flight flits = 2193 (2193 measured)
Buffer busy stall rate = 0.00334688
Buffer conflict stall rate = 0.148597
Buffer full stall rate = 2.1875e-05
Buffer reserved stall rate = 1.75228
Crossbar conflict stall rate = 12.3351
latency change    = 0.249344
throughput change = 0.00150461
latency change    = 0.247559
throughput change = 0.00320125
DVFS epoch t=50000 total_power=0.632642 headroom=0.0673579 avg_power=0.685827 domains{0:freq=0.667167,power=0.632642} routers{0:freq=0.667167,power=0.0381455, 1:freq=0.754245,power=0.0420155, 2:freq=0.678591,power=0.0387017, 3:freq=0.680531,power=0.0387336, 4:freq=0.691742,power=0.0392159, 5:freq=0.653917,power=0.037577, 6:freq=0.668365,power=0.0382207, 7:freq=0.74478,power=0.0416126, 8:freq=0.671919,power=0.038362, 9:freq=0.653562,power=0.0375614, 10:freq=0.756434,power=0.0420833, 11:freq=0.661666,power=0.0379404, 12:freq=0.685885,power=0.0389599, 13:freq=0.713253,power=0.0402011, 14:freq=0.685188,power=0.0389438, 15:freq=0.809202,power=0.0443677}
QUEUE_PID_DIFF: epoch=5 max_occ=0.244531 avg_occ=0.114502 budget=1 headroom=0.0673579
Class 0:
Packet latency average = 126.157
	minimum = 6
	maximum = 5463
Network latency average = 111.994
	minimum = 6
	maximum = 5339
Slowest packet = 2057680
Flit latency average = 111.918
	minimum = 6
	maximum = 5339
Slowest flit = 2057680
Fragmentation average = 0
	minimum = 0
	maximum = 0
Injected packet rate average = 0.179214
	minimum = 0.160667 (at node 31)
	maximum = 0.1847 (at node 45)
Accepted packet rate average = 0.177361
	minimum = 0.1713 (at node 48)
	maximum = 0.183933 (at node 30)
Injected flit rate average = 0.179214
	minimum = 0.160667 (at node 31)
	maximum = 0.1847 (at node 45)
Accepted flit rate average= 0.177361
	minimum = 0.1713 (at node 48)
	maximum = 0.183933 (at node 30)
Injected packet length average = 1
Accepted packet length average = 1
Total in-flight flits = 4030 (4030 measured)
Buffer busy stall rate = 1.07305
Buffer conflict stall rate = 1.1898
Buffer full stall rate = 0.284785
Buffer reserved stall rate = 1.16338
Crossbar conflict stall rate = 5.5542
Class 1:
Packet latency average = 134.146
	minimum = 6
	maximum = 6290
Network latency average = 89.5218
	minimum = 6
	maximum = 5644
Slowest packet = 2075235
Flit latency average = 89.4721
	minimum = 6
	maximum = 5644
Slowest flit = 2075235
Fragmentation average = 0
	minimum = 0
	maximum = 0
Injected packet rate average = 0.396387
	minimum = 0.322967 (at node 31)
	maximum = 0.4248 (at node 1)
Accepted packet rate average = 0.394658
	minimum = 0.382367 (at node 40)
	maximum = 0.406433 (at node 10)
Injected flit rate average = 0.396387
	minimum = 0.322967 (at node 31)
	maximum = 0.4248 (at node 1)
Accepted flit rate average= 0.394658
	minimum = 0.382367 (at node 40)
	maximum = 0.406433 (at node 10)
Injected packet length average = 1
Accepted packet length average = 1
Total in-flight flits = 4420 (4420 measured)
Buffer busy stall rate = 0.966954
Buffer conflict stall rate = 1.42983
Buffer full stall rate = 0.325367
Buffer reserved stall rate = 2.39329
Crossbar conflict stall rate = 12.4155
latency change    = 0.518208
throughput change = 0.0129415
latency change    = 0.546111
throughput change = 0.0611249
DVFS epoch t=60000 total_power=0.631315 headroom=0.0686855 avg_power=0.676742 domains{0:freq=0.760289,power=0.631315} routers{0:freq=0.760289,power=0.0425846, 1:freq=0.631599,power=0.0368467, 2:freq=0.755159,power=0.0423705, 3:freq=0.768451,power=0.0426931, 4:freq=0.622859,power=0.0358342, 5:freq=0.798791,power=0.0435684, 6:freq=0.663616,power=0.0370799, 7:freq=0.642036,power=0.0356537, 8:freq=0.661401,power=0.037798, 9:freq=0.738295,power=0.0410958, 10:freq=0.630735,power=0.0365458, 11:freq=0.744095,power=0.0410556, 12:freq=0.668519,power=0.0378139, 13:freq=0.689161,power=0.0387138, 14:freq=0.760656,power=0.0415777, 15:freq=0.732024,power=0.0400827}
QUEUE_PID_DIFF: epoch=6 max_occ=0.729688 avg_occ=0.364893 budget=1 headroom=0.0686855
Class 0:
Packet latency average = 167.766
	minimum = 6
	maximum = 6759
Network latency average = 139.603
	minimum = 6
	maximum = 6693
Slowest packet = 2074310
Flit latency average = 139.519
	minimum = 6
	maximum = 6693
Slowest flit = 2074310
Fragmentation average = 0
	minimum = 0
	maximum = 0
Injected packet rate average = 0.180048
	minimum = 0.17505 (at node 8)
	maximum = 0.1842 (at node 31)
Accepted packet rate average = 0.179518
	minimum = 0.175475 (at node 48)
	maximum = 0.184525 (at node 24)
Injected flit rate average = 0.180048
	minimum = 0.17505 (at node 8)
	maximum = 0.1842 (at node 31)
Accepted flit rate average= 0.179518
	minimum = 0.175475 (at node 48)
	maximum = 0.184525 (at node 24)
Injected packet length average = 1
Accepted packet length average = 1
Total in-flight flits = 1818 (1818 measured)
Buffer busy stall rate = 1.66788
Buffer conflict stall rate = 1.90551
Buffer full stall rate = 0.414737
Buffer reserved stall rate = 1.44008
Crossbar conflict stall rate = 5.76136
Class 1:
Packet latency average = 475.923
	minimum = 6
	maximum = 15287
Network latency average = 109.395
	minimum = 6
	maximum = 6217
Slowest packet = 2075235
Flit latency average = 109.337
	minimum = 6
	maximum = 6217
Slowest flit = 2075368
Fragmentation average = 0
	minimum = 0
	maximum = 0
Injected packet rate average = 0.398759
	minimum = 0.262825 (at node 31)
	maximum = 0.425225 (at node 48)
Accepted packet rate average = 0.39782
	minimum = 0.388575 (at node 14)
	maximum = 0.40765 (at node 8)
Injected flit rate average = 0.398759
	minimum = 0.262825 (at node 31)
	maximum = 0.425225 (at node 48)
Accepted flit rate average= 0.39782
	minimum = 0.388575 (at node 14)
	maximum = 0.40765 (at node 8)
Injected packet length average = 1
Accepted packet length average = 1
Total in-flight flits = 3483 (3483 measured)
Buffer busy stall rate = 1.64447
Buffer conflict stall rate = 2.48292
Buffer full stall rate = 0.501194
Buffer reserved stall rate = 2.91908
Crossbar conflict stall rate = 13.0492
latency change    = 0.248017
throughput change = 0.0120178
latency change    = 0.718135
throughput change = 0.00794762
DVFS epoch t=70000 total_power=0.753021 headroom=-0.0530214 avg_power=0.687639 domains{0:freq=0.726819,power=0.753021} routers{0:freq=0.726819,power=0.0425642, 1:freq=0.687703,power=0.0406566, 2:freq=0.726425,power=0.0425199, 3:freq=0.742982,power=0.0431957, 4:freq=1,power=0.0553937, 5:freq=0.789187,power=0.0457082, 6:freq=0.876565,power=0.0500001, 7:freq=0.889632,power=0.0498004, 8:freq=0.751007,power=0.0436975, 9:freq=0.803522,power=0.0461389, 10:freq=0.976532,power=0.0537323, 11:freq=0.955082,power=0.0519737, 12:freq=0.990955,power=0.0547427, 13:freq=0.716926,power=0.0414842, 14:freq=0.803794,power=0.0461853, 15:freq=0.80791,power=0.0452279}
QUEUE_PID_DIFF: epoch=7 max_occ=0.475781 avg_occ=0.210986 budget=0.886383 headroom=-0.0530214
Class 0:
Packet latency average = 204.465
	minimum = 6
	maximum = 6759
Network latency average = 167.709
	minimum = 6
	maximum = 6693
Slowest packet = 2074310
Flit latency average = 167.618
	minimum = 6
	maximum = 6693
Slowest flit = 2074310
Fragmentation average = 0
	minimum = 0
	maximum = 0
Injected packet rate average = 0.179371
	minimum = 0.16976 (at node 47)
	maximum = 0.18372 (at node 45)
Accepted packet rate average = 0.17828
	minimum = 0.17358 (at node 8)
	maximum = 0.18232 (at node 58)
Injected flit rate average = 0.179371
	minimum = 0.16976 (at node 47)
	maximum = 0.18372 (at node 45)
Accepted flit rate average= 0.17828
	minimum = 0.17358 (at node 8)
	maximum = 0.18232 (at node 58)
Injected packet length average = 1
Accepted packet length average = 1
Total in-flight flits = 3961 (3961 measured)
Buffer busy stall rate = 2.499
Buffer conflict stall rate = 2.53031
Buffer full stall rate = 0.623195
Buffer reserved stall rate = 1.72691
Crossbar conflict stall rate = 5.80365
Class 1:
Packet latency average = 656.382
	minimum = 6
	maximum = 21122
Network latency average = 126.957
	minimum = 6
	maximum = 6217
Slowest packet = 2075235
Flit latency average = 126.894
	minimum = 6
	maximum = 6217
Slowest flit = 2075368
Fragmentation average = 0
	minimum = 0
	maximum = 0
Injected packet rate average = 0.388182
	minimum = 0.22674 (at node 31)
	maximum = 0.42544 (at node 48)
Accepted packet rate average = 0.386972
	minimum = 0.37992 (at node 30)
	maximum = 0.39464 (at node 8)
Injected flit rate average = 0.388182
	minimum = 0.22674 (at node 31)
	maximum = 0.42544 (at node 48)
Accepted flit rate average= 0.386972
	minimum = 0.37992 (at node 30)
	maximum = 0.39464 (at node 8)
Injected packet length average = 1
Accepted packet length average = 1
Total in-flight flits = 4967 (4967 measured)
Buffer busy stall rate = 2.25422
Buffer conflict stall rate = 3.23725
Buffer full stall rate = 0.735436
Buffer reserved stall rate = 3.44691
Crossbar conflict stall rate = 13.0129
latency change    = 0.179488
throughput change = 0.00694615
latency change    = 0.274929
throughput change = 0.0280313
DVFS epoch t=80000 total_power=0.71327 headroom=-0.0132705 avg_power=0.690843 domains{0:freq=0.622089,power=0.71327} routers{0:freq=0.622089,power=0.0373344, 1:freq=0.621771,power=0.0374585, 2:freq=0.623777,power=0.0370775, 3:freq=0.672002,power=0.0390234, 4:freq=0.69537,power=0.0411967, 5:freq=0.738155,power=0.0433256, 6:freq=0.726787,power=0.0427129, 7:freq=0.943191,power=0.0521603, 8:freq=0.631817,power=0.0379187, 9:freq=0.884489,power=0.0496409, 10:freq=0.814018,power=0.0461881, 11:freq=0.943191,power=0.0517868, 12:freq=0.753424,power=0.0433764, 13:freq=0.899408,power=0.0505151, 14:freq=0.943191,power=0.0523121, 15:freq=0.938644,power=0.0512431}
QUEUE_PID_DIFF: epoch=8 max_occ=0.601562 avg_occ=0.381396 budget=0.971563 headroom=-0.0132705
Class 0:
Packet latency average = 229.334
	minimum = 6
	maximum = 7723
Network latency average = 183.483
	minimum = 6
	maximum = 6866
Slowest packet = 2074310
Flit latency average = 183.397
	minimum = 6
	maximum = 6866
Slowest flit = 2994195
Fragmentation average = 0
	minimum = 0
	maximum = 0
Injected packet rate average = 0.17898
	minimum = 0.16305 (at node 63)
	maximum = 0.1826 (at node 45)
Accepted packet rate average = 0.178099
	minimum = 0.173883 (at node 8)
	maximum = 0.182817 (at node 24)
Injected flit rate average = 0.17898
	minimum = 0.16305 (at node 63)
	maximum = 0.1826 (at node 45)
Accepted flit rate average= 0.178099
	minimum = 0.173883 (at node 8)
	maximum = 0.182817 (at node 24)
Injected packet length average = 1
Accepted packet length average = 1
Total in-flight flits = 3857 (3857 measured)
Buffer busy stall rate = 3.28385
Buffer conflict stall rate = 3.04689
Buffer full stall rate = 0.801189
Buffer reserved stall rate = 1.88621
Crossbar conflict stall rate = 5.59876
Class 1:
Packet latency average = 856.793
	minimum = 6
	maximum = 29924
Network latency average = 136.119
	minimum = 6
	maximum = 6217
Slowest packet = 2075235
Flit latency average = 136.059
	minimum = 6
	maximum = 6217
Slowest flit = 2075368
Fragmentation average = 0
	minimum = 0
	maximum = 0
Injected packet rate average = 0.382109
	minimum = 0.19075 (at node 31)
	maximum = 0.425483 (at node 33)
Accepted packet rate average = 0.381424
	minimum = 0.375517 (at node 27)
	maximum = 0.388967 (at node 8)
Injected flit rate average = 0.382109
	minimum = 0.19075 (at node 31)
	maximum = 0.425483 (at node 33)
Accepted flit rate average= 0.381424
	minimum = 0.375517 (at node 27)
	maximum = 0.388967 (at node 8)
Injected packet length average = 1
Accepted packet length average = 1
Total in-flight flits = 3724 (3724 measured)
Buffer busy stall rate = 3.05602
Buffer conflict stall rate = 3.85456
Buffer full stall rate = 1.00032
Buffer reserved stall rate = 3.72049
Crossbar conflict stall rate = 12.5246
latency change    = 0.108442
throughput change = 0.00101799
latency change    = 0.233909
throughput change = 0.0145454
DVFS epoch t=90000 total_power=0.819808 headroom=-0.119808 avg_power=0.705172 domains{0:freq=0.794222,power=0.819808} routers{0:freq=0.794222,power=0.0470608, 1:freq=0.917486,power=0.0528316, 2:freq=0.87779,power=0.0509502, 3:freq=0.907242,power=0.0514501, 4:freq=0.758281,power=0.0444784, 5:freq=0.626338,power=0.0382278, 6:freq=0.729885,power=0.0427099, 7:freq=0.985782,power=0.0545583, 8:freq=0.945185,power=0.054572, 9:freq=0.834353,power=0.0492114, 10:freq=0.985782,power=0.0565309, 11:freq=0.985782,power=0.055928, 12:freq=0.985782,power=0.0558588, 13:freq=0.985782,power=0.0559476, 14:freq=0.985782,power=0.0550323, 15:freq=0.985782,power=0.0544602}
QUEUE_PID_DIFF: epoch=9 max_occ=0.758594 avg_occ=0.340137 budget=0.743269 headroom=-0.119808
Class 0:
Packet latency average = 279.611
	minimum = 6
	maximum = 10720
Network latency average = 203.896
	minimum = 6
	maximum = 7438
Slowest packet = 2074310
Flit latency average = 203.811
	minimum = 6
	maximum = 7438
Slowest flit = 3090614
Fragmentation average = 0
	minimum = 0
	maximum = 0
Injected packet rate average = 0.179209
	minimum = 0.159414 (at node 63)
	maximum = 0.182886 (at node 25)
Accepted packet rate average = 0.178404
	minimum = 0.173343 (at node 8)
	maximum = 0.182429 (at node 58)
Injected flit rate average = 0.179209
	minimum = 0.159414 (at node 63)
	maximum = 0.182886 (at node 25)
Accepted flit rate average= 0.178404
	minimum = 0.173343 (at node 8)
	maximum = 0.182429 (at node 58)
Injected packet length average = 1
Accepted packet length average = 1
Total in-flight flits = 4081 (4081 measured)
Buffer busy stall rate = 3.84588
Buffer conflict stall rate = 3.47196
Buffer full stall rate = 0.955171
Buffer reserved stall rate = 1.95252
Crossbar conflict stall rate = 5.59482
Class 1:
Packet latency average = 1128.3
	minimum = 6
	maximum = 40655
Network latency average = 145.212
	minimum = 6
	maximum = 6217
Slowest packet = 2075235
Flit latency average = 145.153
	minimum = 6
	maximum = 6217
Slowest flit = 2075368
Fragmentation average = 0
	minimum = 0
	maximum = 0
Injected packet rate average = 0.373475
	minimum = 0.172886 (at node 63)
	maximum = 0.424214 (at node 33)
Accepted packet rate average = 0.372837
	minimum = 0.367386 (at node 40)
	maximum = 0.3785 (at node 8)
Injected flit rate average = 0.373475
	minimum = 0.172886 (at node 63)
	maximum = 0.424214 (at node 33)
Accepted flit rate average= 0.372837
	minimum = 0.367386 (at node 40)
	maximum = 0.3785 (at node 8)
Injected packet length average = 1
Accepted packet length average = 1
Total in-flight flits = 3955 (3955 measured)
Buffer busy stall rate = 3.26784
Buffer conflict stall rate = 4.18026
Buffer full stall rate = 1.10866
Buffer reserved stall rate = 3.73522
Crossbar conflict stall rate = 12.3044
latency change    = 0.179811
throughput change = 0.00171265
latency change    = 0.240632
throughput change = 0.0230326
DVFS epoch t=100000 total_power=0.747819 headroom=-0.0478185 avg_power=0.709437 domains{0:freq=0.606946,power=0.747819} routers{0:freq=0.606946,power=0.037777, 1:freq=0.756623,power=0.0450878, 2:freq=0.757141,power=0.0444581, 3:freq=0.9,power=0.0511081, 4:freq=0.735051,power=0.0450168, 5:freq=0.9,power=0.053291, 6:freq=0.85981,power=0.0510982, 7:freq=0.771932,power=0.0460766, 8:freq=0.648844,power=0.0402284, 9:freq=0.736376,power=0.0445729, 10:freq=0.734807,power=0.0441685, 11:freq=0.755475,power=0.0448247, 12:freq=0.777099,power=0.0458089, 13:freq=0.9,power=0.051983, 14:freq=0.9,power=0.0514004, 15:freq=0.9,power=0.050918}
QUEUE_PID_DIFF: epoch=10 max_occ=0.635938 avg_occ=0.352197 budget=0.897532 headroom=-0.0478185
Class 0:
Packet latency average = 310.3
	minimum = 6
	maximum = 12188
Network latency average = 213.699
	minimum = 6
	maximum = 7438
Slowest packet = 2074310
Flit latency average = 213.619
	minimum = 6
	maximum = 7438
Slowest flit = 3090614
Fragmentation average = 0
	minimum = 0
	maximum = 0
Injected packet rate average = 0.17943
	minimum = 0.15945 (at node 63)
	maximum = 0.182725 (at node 25)
Accepted packet rate average = 0.178874
	minimum = 0.175375 (at node 8)
	maximum = 0.182787 (at node 24)
Injected flit rate average = 0.17943
	minimum = 0.15945 (at node 63)
	maximum = 0.182725 (at node 25)
Accepted flit rate average= 0.178874
	minimum = 0.175375 (at node 8)
	maximum = 0.182787 (at node 24)
Injected packet length average = 1
Accepted packet length average = 1
Total in-flight flits = 3321 (3321 measured)
Buffer busy stall rate = 4.20513
Buffer conflict stall rate = 3.79839
Buffer full stall rate = 1.04561
Buffer reserved stall rate = 2.03913
Crossbar conflict stall rate = 5.53854
Class 1:
Packet latency average = 1459.38
	minimum = 6
	maximum = 45024
Network latency average = 150.604
	minimum = 6
	maximum = 6217
Slowest packet = 2075235
Flit latency average = 150.549
	minimum = 6
	maximum = 6217
Slowest flit = 2075368
Fragmentation average = 0
	minimum = 0
	maximum = 0
Injected packet rate average = 0.371476
	minimum = 0.151275 (at node 63)
	maximum = 0.423525 (at node 33)
Accepted packet rate average = 0.37091
	minimum = 0.366038 (at node 30)
	maximum = 0.37585 (at node 8)
Injected flit rate average = 0.371476
	minimum = 0.151275 (at node 63)
	maximum = 0.423525 (at node 33)
Accepted flit rate average= 0.37091
	minimum = 0.366038 (at node 30)
	maximum = 0.37585 (at node 8)
Injected packet length average = 1
Accepted packet length average = 1
Total in-flight flits = 3994 (3994 measured)
Buffer busy stall rate = 3.56763
Buffer conflict stall rate = 4.51033
Buffer full stall rate = 1.20669
Buffer reserved stall rate = 3.84879
Crossbar conflict stall rate = 12.1695
latency change    = 0.0988999
throughput change = 0.00262633
latency change    = 0.226863
throughput change = 0.00519604
DVFS epoch t=110000 total_power=0.835599 headroom=-0.135599 avg_power=0.720906 domains{0:freq=0.942702,power=0.835599} routers{0:freq=0.942702,power=0.0563779, 1:freq=0.701387,power=0.0440749, 2:freq=0.927733,power=0.0550191, 3:freq=0.948766,power=0.0555731, 4:freq=0.866119,power=0.0521263, 5:freq=0.649744,power=0.0411565, 6:freq=0.765914,power=0.0467708, 7:freq=0.780533,power=0.0469524, 8:freq=0.914432,power=0.0553378, 9:freq=0.891909,power=0.0541242, 10:freq=0.91878,power=0.0557554, 11:freq=0.913286,power=0.0547918, 12:freq=0.948766,power=0.0565672, 13:freq=0.828029,power=0.0501459, 14:freq=0.948766,power=0.0557904, 15:freq=0.948766,power=0.0550349}
QUEUE_PID_DIFF: epoch=11 max_occ=0.698438 avg_occ=0.326318 budget=0.709432 headroom=-0.135599
Class 0:
Packet latency average = 329.834
	minimum = 6
	maximum = 12782
Network latency average = 222.537
	minimum = 6
	maximum = 7438
Slowest packet = 2074310
Flit latency average = 222.462
	minimum = 6
	maximum = 7438
Slowest flit = 3090614
Fragmentation average = 0
	minimum = 0
	maximum = 0
Injected packet rate average = 0.179515
	minimum = 0.160211 (at node 63)
	maximum = 0.182878 (at node 25)
Accepted packet rate average = 0.178924
	minimum = 0.175233 (at node 8)
	maximum = 0.181678 (at node 58)
Injected flit rate average = 0.179515
	minimum = 0.160211 (at node 63)
	maximum = 0.182878 (at node 25)
Accepted flit rate average= 0.178924
	minimum = 0.175233 (at node 8)
	maximum = 0.181678 (at node 58)
Injected packet length average = 1
Accepted packet length average = 1
Total in-flight flits = 3884 (3884 measured)
Buffer busy stall rate = 4.38282
Buffer conflict stall rate = 4.02197
Buffer full stall rate = 1.09546
Buffer reserved stall rate = 2.12103
Crossbar conflict stall rate = 5.57845
Class 1:
Packet latency average = 1867.75
	minimum = 6
	maximum = 56935
Network latency average = 157.137
	minimum = 6
	maximum = 6217
Slowest packet = 2075235
Flit latency average = 157.085
	minimum = 6
	maximum = 6217
Slowest flit = 2075368
Fragmentation average = 0
	minimum = 0
	maximum = 0
Injected packet rate average = 0.368518
	minimum = 0.134467 (at node 63)
	maximum = 0.423633 (at node 33)
Accepted packet rate average = 0.367979
	minimum = 0.363656 (at node 40)
	maximum = 0.372456 (at node 1)
Injected flit rate average = 0.368518
	minimum = 0.134467 (at node 63)
	maximum = 0.423633 (at node 33)
Accepted flit rate average= 0.367979
	minimum = 0.363656 (at node 40)
	maximum = 0.372456 (at node 1)
Injected packet length average = 1
Accepted packet length average = 1
Total in-flight flits = 4200 (4200 measured)
Buffer busy stall rate = 3.71941
Buffer conflict stall rate = 4.79808
Buffer full stall rate = 1.2653
Buffer reserved stall rate = 3.95505
Crossbar conflict stall rate = 12.1854
latency change    = 0.059225
throughput change = 0.000281995
latency change    = 0.218644
throughput change = 0.00796303
DVFS epoch t=120000 total_power=0.787176 headroom=-0.087176 avg_power=0.726429 domains{0:freq=0.682958,power=0.787176} routers{0:freq=0.682958,power=0.0438655, 1:freq=0.863497,power=0.0531749, 2:freq=0.755324,power=0.0469439, 3:freq=0.763458,power=0.0482185, 4:freq=0.725347,power=0.0460744, 5:freq=0.9,power=0.0553026, 6:freq=0.893434,power=0.0546114, 7:freq=0.9,power=0.0542651, 8:freq=0.63328,power=0.0408897, 9:freq=0.742826,power=0.0464284, 10:freq=0.662088,power=0.0419765, 11:freq=0.752547,power=0.0462973, 12:freq=0.744413,power=0.0467419, 13:freq=0.9,power=0.0549768, 14:freq=0.9,power=0.0538842, 15:freq=0.9,power=0.0535252}
QUEUE_PID_DIFF: epoch=12 max_occ=0.529687 avg_occ=0.350684 budget=0.813194 headroom=-0.087176
Class 0:
Packet latency average = 345.007
	minimum = 6
	maximum = 16749
Network latency average = 226.49
	minimum = 6
	maximum = 7438
Slowest packet = 2074310
Flit latency average = 226.421
	minimum = 6
	maximum = 7438
Slowest flit = 3090614
Fragmentation average = 0
	minimum = 0
	maximum = 0
Injected packet rate average = 0.179463
	minimum = 0.15475 (at node 63)
	maximum = 0.18282 (at node 25)
Accepted packet rate average = 0.179058
	minimum = 0.17574 (at node 48)
	maximum = 0.18216 (at node 24)
Injected flit rate average = 0.179463
	minimum = 0.15475 (at node 63)
	maximum = 0.18282 (at node 25)
Accepted flit rate average= 0.179058
	minimum = 0.17574 (at node 48)
	maximum = 0.18216 (at node 24)
Injected packet length average = 1
Accepted packet length average = 1
Total in-flight flits = 3062 (3062 measured)
Buffer busy stall rate = 4.48935
Buffer conflict stall rate = 4.18921
Buffer full stall rate = 1.12857
Buffer reserved stall rate = 2.14479
Crossbar conflict stall rate = 5.55014
Class 1:
Packet latency average = 2232.72
	minimum = 6
	maximum = 64486
Network latency average = 159.561
	minimum = 6
	maximum = 6217
Slowest packet = 2075235
Flit latency average = 159.514
	minimum = 6
	maximum = 6217
Slowest flit = 2075368
Fragmentation average = 0
	minimum = 0
	maximum = 0
Injected packet rate average = 0.369262
	minimum = 0.12102 (at node 63)
	maximum = 0.42309 (at node 33)
Accepted packet rate average = 0.368836
	minimum = 0.36458 (at node 40)
	maximum = 0.37338 (at node 53)
Injected flit rate average = 0.369262
	minimum = 0.12102 (at node 63)
	maximum = 0.42309 (at node 33)
Accepted flit rate average= 0.368836
	minimum = 0.36458 (at node 40)
	maximum = 0.37338 (at node 53)
Injected packet length average = 1
Accepted packet length average = 1
Total in-flight flits = 3811 (3811 measured)
Buffer busy stall rate = 3.82911
Buffer conflict stall rate = 4.98883
Buffer full stall rate = 1.33441
Buffer reserved stall rate = 4.01958
Crossbar conflict stall rate = 12.1811
latency change    = 0.0439769
throughput change = 0.000746382
latency change    = 0.163466
throughput change = 0.00232243
DVFS epoch t=130000 total_power=0.857122 headroom=-0.157122 avg_power=0.736482 domains{0:freq=0.63131,power=0.857122} routers{0:freq=0.63131,power=0.0419038, 1:freq=0.906597,power=0.0565006, 2:freq=0.872212,power=0.0543837, 3:freq=0.906597,power=0.0558052, 4:freq=0.87623,power=0.0549917, 5:freq=0.651295,power=0.0429711, 6:freq=0.906597,power=0.0561861, 7:freq=0.906597,power=0.0555379, 8:freq=0.875426,power=0.0553706, 9:freq=0.856772,power=0.0546486, 10:freq=0.819801,power=0.0527862, 11:freq=0.88914,power=0.0554955, 12:freq=0.906597,power=0.0571248, 13:freq=0.786287,power=0.0506321, 14:freq=0.906597,power=0.0567887, 15:freq=0.906597,power=0.0559955}
QUEUE_PID_DIFF: epoch=13 max_occ=0.624219 avg_occ=0.297363 budget=0.66331 headroom=-0.157122
Class 0:
Packet latency average = 364.887
	minimum = 6
	maximum = 18295
Network latency average = 235.474
	minimum = 6
	maximum = 7438
Slowest packet = 2074310
Flit latency average = 235.408
	minimum = 6
	maximum = 7438
Slowest flit = 3090614
Fragmentation average = 0
	minimum = 0
	maximum = 0
Injected packet rate average = 0.179368
	minimum = 0.1538 (at node 63)
	maximum = 0.183309 (at node 31)
Accepted packet rate average = 0.178845
	minimum = 0.176309 (at node 48)
	maximum = 0.182536 (at node 24)
Injected flit rate average = 0.179368
	minimum = 0.1538 (at node 63)
	maximum = 0.183309 (at node 31)
Accepted flit rate average= 0.178845
	minimum = 0.176309 (at node 48)
	maximum = 0.182536 (at node 24)
Injected packet length average = 1
Accepted packet length average = 1
Total in-flight flits = 4156 (4156 measured)
Buffer busy stall rate = 4.70507
Buffer conflict stall rate = 4.36149
Buffer full stall rate = 1.17062
Buffer reserved stall rate = 2.28614
Crossbar conflict stall rate = 5.54384
Class 1:
Packet latency average = 2643.09
	minimum = 6
	maximum = 75839
Network latency average = 165.762
	minimum = 6
	maximum = 6217
Slowest packet = 2075235
Flit latency average = 165.716
	minimum = 6
	maximum = 6217
Slowest flit = 2075368
Fragmentation average = 0
	minimum = 0
	maximum = 0
Injected packet rate average = 0.365405
	minimum = 0.110018 (at node 63)
	maximum = 0.423018 (at node 33)
Accepted packet rate average = 0.364909
	minimum = 0.360836 (at node 40)
	maximum = 0.369736 (at node 53)
Injected flit rate average = 0.365405
	minimum = 0.110018 (at node 63)
	maximum = 0.423018 (at node 33)
Accepted flit rate average= 0.364909
	minimum = 0.360836 (at node 40)
	maximum = 0.369736 (at node 53)
Injected packet length average = 1
Accepted packet length average = 1
Total in-flight flits = 4602 (4602 measured)
Buffer busy stall rate = 3.96717
Buffer conflict stall rate = 5.19385
Buffer full stall rate = 1.36264
Buffer reserved stall rate = 4.2184
Crossbar conflict stall rate = 12.0977
latency change    = 0.0544822
throughput change = 0.00118913
latency change    = 0.155261
throughput change = 0.0107627
DVFS epoch t=140000 total_power=0.815343 headroom=-0.115343 avg_power=0.742115 domains{0:freq=0.9,power=0.815343} routers{0:freq=0.9,power=0.0574187, 1:freq=0.704956,power=0.0465281, 2:freq=0.9,power=0.0572525, 3:freq=0.9,power=0.0564321, 4:freq=0.670722,power=0.0440952, 5:freq=0.83361,power=0.0526824, 6:freq=0.9,power=0.0569776, 7:freq=0.9,power=0.0557519, 8:freq=0.724277,power=0.0471821, 9:freq=0.611151,power=0.0411068, 10:freq=0.639472,power=0.0422676, 11:freq=0.9,power=0.0560614, 12:freq=0.9,power=0.0564337, 13:freq=0.648272,power=0.0419216, 14:freq=0.746977,power=0.0481295, 15:freq=0.9,power=0.0551018}
QUEUE_PID_DIFF: epoch=14 max_occ=0.6125 avg_occ=0.376318 budget=0.752837 headroom=-0.115343
Class 0:
Packet latency average = 381.211
	minimum = 6
	maximum = 21757
Network latency average = 238.161
	minimum = 6
	maximum = 7438
Slowest packet = 2074310
Flit latency average = 238.1
	minimum = 6
	maximum = 7438
Slowest flit = 3090614
Fragmentation average = 0
	minimum = 0
	maximum = 0
Injected packet rate average = 0.179444
	minimum = 0.151575 (at node 63)
	maximum = 0.1827 (at node 25)
Accepted packet rate average = 0.179078
	minimum = 0.175958 (at node 48)
	maximum = 0.182142 (at node 24)
Injected flit rate average = 0.179444
	minimum = 0.151575 (at node 63)
	maximum = 0.1827 (at node 25)
Accepted flit rate average= 0.179078
	minimum = 0.175958 (at node 48)
	maximum = 0.182142 (at node 24)
Injected packet length average = 1
Accepted packet length average = 1
Total in-flight flits = 3278 (3278 measured)
Buffer busy stall rate = 4.78976
Buffer conflict stall rate = 4.46933
Buffer full stall rate = 1.19267
Buffer reserved stall rate = 2.27804
Crossbar conflict stall rate = 5.55477
Class 1:
Packet latency average = 3007.73
	minimum = 6
	maximum = 82212
Network latency average = 167.358
	minimum = 6
	maximum = 6217
Slowest packet = 2075235
Flit latency average = 167.315
	minimum = 6
	maximum = 6217
Slowest flit = 2075368
Fragmentation average = 0
	minimum = 0
	maximum = 0
Injected packet rate average = 0.366393
	minimum = 0.10085 (at node 63)
	maximum = 0.423333 (at node 50)
Accepted packet rate average = 0.366069
	minimum = 0.362133 (at node 40)
	maximum = 0.3704 (at node 45)
Injected flit rate average = 0.366393
	minimum = 0.10085 (at node 63)
	maximum = 0.423333 (at node 50)
Accepted flit rate average= 0.366069
	minimum = 0.362133 (at node 40)
	maximum = 0.3704 (at node 45)
Injected packet length average = 1
Accepted packet length average = 1
Total in-flight flits = 3580 (3580 measured)
Buffer busy stall rate = 4.03194
Buffer conflict stall rate = 5.34147
Buffer full stall rate = 1.38803
Buffer reserved stall rate = 4.2041
Crossbar conflict stall rate = 12.1886
latency change    = 0.0428222
throughput change = 0.00130072
latency change    = 0.121234
throughput change = 0.00317049
Draining all recorded packets ...
DVFS epoch t=150000 total_power=0.883927 headroom=-0.183927 avg_power=0.751569 domains{0:freq=0.634315,power=0.883927} routers{0:freq=0.634315,power=0.0433932, 1:freq=0.821433,power=0.053928, 2:freq=0.761668,power=0.0500567, 3:freq=0.9,power=0.0569724, 4:freq=0.801767,power=0.0534717, 5:freq=0.9,power=0.0592253, 6:freq=0.9,power=0.0584617, 7:freq=0.9,power=0.0574662, 8:freq=0.824758,power=0.054841, 9:freq=0.849928,power=0.0562399, 10:freq=0.9,power=0.0593799, 11:freq=0.9,power=0.0583689, 12:freq=0.776552,power=0.0517631, 13:freq=0.826725,power=0.0546443, 14:freq=0.9,power=0.0585064, 15:freq=0.9,power=0.0572086}
QUEUE_PID_DIFF: epoch=15 max_occ=0.559375 avg_occ=0.295166 budget=0.60587 headroom=-0.183927
Class 0:
Remaining flits: 5130164 5151949 5151981 5152131 5169965 5170061 5193080 5231201 5231308 5231380 [...] (2568 flits)
Measured flits: 5130164 5151949 5151981 5152131 5169965 5170061 5193080 5231201 5231308 5231380 [...] (755 flits)
Class 1:
Remaining flits: 2767162 5108522 5119695 5128614 5285971 5288284 5288374 5288446 5288561 5288746 [...] (4128 flits)
Measured flits: 2767162 5108522 5119695 5128614 5285971 5288284 5288374 5288446 5288561 5288746 [...] (2868 flits)
Class 0:
Remaining flits: 5293403 5293859 5294177 5306993 5318676 5334777 5334928 5335057 5335089 5335783 [...] (2365 flits)
Measured flits: 5293403 5293859 5294177 5306993 5318676 5334777 5334928 5335057 5335089 5335783 [...] (345 flits)
Class 1:
Remaining flits: 2767162 5108522 5374761 5378401 5380097 5383818 5384594 5384731 5384935 5385261 [...] (5232 flits)
Measured flits: 2767162 5108522 5374761 5378401 5380097 5383818 5384594 5384731 5384935 5385261 [...] (3457 flits)
Class 0:
Remaining flits: 5392888 5399752 5400420 5401492 5402401 5402836 5402945 5402989 5403026 5404529 [...] (3259 flits)
Measured flits: 5426137 5428947 5429254 5429547 5429882 5429966 5430015 5430584 5430929 5431314 [...] (191 flits)
Class 1:
Remaining flits: 2767162 5108522 5391065 5400247 5400379 5401847 5403157 5403473 5403980 5404460 [...] (5914 flits)
Measured flits: 2767162 5108522 5391065 5400247 5400379 5401847 5403157 5403473 5403980 5404460 [...] (3005 flits)
Class 0:
Remaining flits: 5400420 5415001 5416884 5418064 5418457 5418797 5419533 5422225 5427401 5427567 [...] (4330 flits)
Measured flits: 5430929 5436373 5436557 5436640 5436768 5437480 5438245 5439509 5440465 5442015 [...] (160 flits)
Class 1:
Remaining flits: 2767162 5404804 5414077 5414609 5415936 5419034 5420133 5428112 5428160 5429319 [...] (5536 flits)
Measured flits: 2767162 5404804 5414077 5414609 5415936 5419034 5420133 5428112 5428160 5429319 [...] (1981 flits)
Class 0:
Remaining flits: 5436409 5436640 5436984 5439057 5443457 5443681 5443912 5443950 5444693 5445164 [...] (4523 flits)
Measured flits: 5436640 5443457 5444693 5448524 5450129 5451730 5454157 5455040 5455160 5460207 [...] (149 flits)
Class 1:
Remaining flits: 2767162 5415936 5429783 5440279 5441697 5442491 5443567 5443955 5444243 5444347 [...] (4917 flits)
Measured flits: 2767162 5415936 5429783 5440279 5441697 5442491 5443567 5443955 5444243 5444347 [...] (1614 flits)
Class 0:
Remaining flits: 5450129 5453592 5454157 5456294 5459044 5460207 5460761 5461039 5461079 5461137 [...] (4492 flits)
Measured flits: 5450129 5454157 5460207 5461137 5461406 5461464 5461538 5461746 5461871 5462000 [...] (143 flits)
Class 1:
Remaining flits: 2767162 5415936 5444243 5445958 5451685 5456222 5458790 5461902 5462087 5462328 [...] (4605 flits)
Measured flits: 2767162 5415936 5444243 5445958 5451685 5456222 5458790 5461902 5462087 5462328 [...] (1522 flits)
Class 0:
Remaining flits: 5454157 5456294 5459044 5461871 5462000 5462170 5463473 5463562 5468306 5474419 [...] (4300 flits)
Measured flits: 5454157 5461871 5462000 5462170 5463473 5477299 5477357 5477433 5483216 5483726 [...] (144 flits)
Class 1:
Remaining flits: 2767162 5415936 5456222 5458790 5462748 5480944 5482481 5488256 5488291 5488497 [...] (4452 flits)
Measured flits: 2767162 5415936 5456222 5458790 5462748 5480944 5482481 5488256 5488291 5488497 [...] (1356 flits)
Class 0:
Remaining flits: 5461871 5462000 5462170 5468306 5474419 5474505 5474761 5474854 5476339 5477299 [...] (4528 flits)
Measured flits: 5461871 5462000 5462170 5477299 5509136 5509204 5509593 5509653 5509705 5509772 [...] (139 flits)
Class 1:
Remaining flits: 2767162 5415936 5456222 5462748 5480944 5488256 5488291 5489366 5496967 5512973 [...] (4127 flits)
Measured flits: 2767162 5415936 5456222 5462748 5480944 5488256 5488291 5489366 5496967 5512973 [...] (1192 flits)
Class 0:
Remaining flits: 5462000 5474505 5476339 5484899 5506850 5507172 5508251 5508346 5509593 5513620 [...] (4389 flits)
Measured flits: 5462000 5509593 5515113 5515291 5525311 5525375 5525463 5525546 5525600 5530213 [...] (145 flits)
Class 1:
Remaining flits: 2767162 5456222 5462748 5480944 5489366 5515781 5521464 5521603 5521850 5522282 [...] (4297 flits)
Measured flits: 2767162 5456222 5462748 5480944 5489366 5515781 5521464 5521603 5521850 5522282 [...] (1018 flits)
Class 0:
Remaining flits: 5508346 5514273 5515113 5520653 5525769 5533011 5553477 5553628 5556270 5556449 [...] (4277 flits)
Measured flits: 5515113 5553477 5553628 5568168 5568400 5568562 5568624 5572914 5572943 5573061 [...] (150 flits)
Class 1:
Remaining flits: 2767162 5456222 5462748 5480944 5515781 5522282 5535015 5561865 5564322 5573128 [...] (4495 flits)
Measured flits: 2767162 5456222 5462748 5480944 5515781 5522282 5535015 5561865 5564322 5586432 [...] (1169 flits)
DVFS epoch t=160000 total_power=0.828544 headroom=-0.128544 avg_power=0.75638 domains{0:freq=0.886992,power=0.828544} routers{0:freq=0.886992,power=0.0586739, 1:freq=0.692394,power=0.0473858, 2:freq=0.877726,power=0.0577998, 3:freq=0.9,power=0.0583924, 4:freq=0.88832,power=0.0579568, 5:freq=0.64682,power=0.0444132, 6:freq=0.722547,power=0.0481683, 7:freq=0.9,power=0.0578336, 8:freq=0.684941,power=0.0462922, 9:freq=0.605115,power=0.0418965, 10:freq=0.621043,power=0.0424023, 11:freq=0.9,power=0.0579647, 12:freq=0.9,power=0.058228, 13:freq=0.695714,power=0.0466266, 14:freq=0.723605,power=0.047394, 15:freq=0.9,power=0.0571162}
QUEUE_PID_DIFF: epoch=16 max_occ=0.763281 avg_occ=0.389648 budget=0.724548 headroom=-0.128544
Class 0:
Remaining flits: 5573757 5588019 5602567 5602644 5603289 5603346 5603478 5607462 5607523 5607554 [...] (3554 flits)
Measured flits: 5573757 5617257 5617775 5618994 5619125 5619183 5619235 5630941 5632882 5637731 [...] (169 flits)
Class 1:
Remaining flits: 2767162 5456222 5462748 5480944 5515781 5522282 5535015 5564322 5593818 5598305 [...] (4555 flits)
Measured flits: 2767162 5456222 5462748 5480944 5515781 5522282 5535015 5564322 5593818 5598305 [...] (1246 flits)
Class 0:
Remaining flits: 5607523 5607819 5639033 5643112 5644235 5644299 5645004 5645415 5645451 5650057 [...] (2932 flits)
Measured flits: 5659353 5670936 5682930 5684039 5689579 5690084 5690546 5690584 5693969 5695620 [...] (148 flits)
Class 1:
Remaining flits: 2767162 5456222 5462748 5480944 5522282 5564322 5639879 5664911 5665510 5666967 [...] (4737 flits)
Measured flits: 2767162 5456222 5462748 5480944 5522282 5564322 5639879 5664911 5665510 5666967 [...] (1344 flits)
Class 0:
Remaining flits: 5708784 5710099 5710168 5710431 5712145 5712673 5715782 5715915 5715989 5717464 [...] (2667 flits)
Measured flits: 5708784 5710168 5715782 5715915 5717464 5717578 5717651 5717767 5717803 5722235 [...] (168 flits)
Class 1:
Remaining flits: 2767162 5462748 5480944 5522282 5714221 5716460 5720843 5723601 5728561 5729008 [...] (5542 flits)
Measured flits: 2767162 5462748 5480944 5522282 5714221 5716460 5720843 5723601 5728561 5729008 [...] (2061 flits)
Class 0:
Remaining flits: 5722389 5722508 5747368 5749533 5749611 5749742 5749787 5749957 5757023 5757156 [...] (2827 flits)
Measured flits: 5722389 5722508 5757797 5757924 5758124 5758381 5758744 5764164 5764252 5764574 [...] (164 flits)
Class 1:
Remaining flits: 2767162 5480944 5757668 5759374 5761062 5763802 5764546 5764595 5764687 5764736 [...] (5284 flits)
Measured flits: 2767162 5480944 5757668 5759374 5761062 5763802 5764546 5764595 5764687 5764736 [...] (1895 flits)
Class 0:
Remaining flits: 5749533 5757367 5757797 5757924 5759294 5764096 5764454 5764619 5765183 5766159 [...] (3276 flits)
Measured flits: 5757797 5757924 5764619 5765183 5772974 5773059 5773181 5778536 5780314 5780448 [...] (153 flits)
Class 1:
Remaining flits: 2767162 5765110 5767438 5767576 5768809 5772833 5773157 5773589 5780101 5782665 [...] (4869 flits)
Measured flits: 2767162 5765110 5767438 5767576 5768809 5772833 5773157 5773589 5780101 5782665 [...] (1499 flits)
Class 0:
Remaining flits: 5772974 5778536 5780314 5786088 5787550 5795569 5797933 5800071 5800399 5800529 [...] (3787 flits)
Measured flits: 5772974 5778536 5780314 5787550 5797933 5807710 5807817 5807919 5807956 5808410 [...] (146 flits)
Class 1:
Remaining flits: 2767162 5773589 5782665 5789696 5789875 5793048 5795654 5796181 5796637 5797172 [...] (4387 flits)
Measured flits: 2767162 5773589 5782665 5789696 5789875 5793048 5796637 5797172 5798357 5798970 [...] (1306 flits)
Class 0:
Remaining flits: 5787550 5800529 5801827 5801887 5805554 5805944 5806015 5806511 5806618 5807127 [...] (4189 flits)
Measured flits: 5787550 5807817 5807919 5807956 5808410 5812364 5813572 5813932 5814128 5814218 [...] (137 flits)
Class 1:
Remaining flits: 2767162 5798357 5799371 5800912 5807213 5807430 5807581 5807673 5807678 5807747 [...] (4225 flits)
Measured flits: 2767162 5798357 5799371 5800912 5807213 5807430 5807581 5807673 5807678 5807747 [...] (870 flits)
Class 0:
Remaining flits: 5787550 5805944 5807355 5807817 5807919 5808410 5812364 5812913 5813329 5813572 [...] (4306 flits)
Measured flits: 5787550 5807817 5807919 5808410 5812364 5813572 5813932 5814128 5814218 5814254 [...] (151 flits)
Class 1:
Remaining flits: 2767162 5799371 5800912 5807430 5807581 5810655 5812590 5818701 5820241 5821195 [...] (4007 flits)
Measured flits: 2767162 5799371 5800912 5807430 5807581 5810655 5818701 5820241 5821195 5821244 [...] (685 flits)
Class 0:
Remaining flits: 5826548 5834513 5834636 5834761 5840223 5854359 5854661 5855346 5855376 5855417 [...] (3895 flits)
Measured flits: 5854661 5855346 5855376 5855417 5855927 5856126 5856285 5856412 5860186 5910870 [...] (164 flits)
Class 1:
Remaining flits: 2767162 5800912 5821608 5823175 5825273 5829843 5830237 5831095 5835396 5867675 [...] (3956 flits)
Measured flits: 2767162 5800912 5821608 5823175 5825273 5829843 5830237 5831095 5835396 5867675 [...] (823 flits)
Class 0:
Remaining flits: 5856412 5867097 5872772 5874662 5879698 5881546 5890966 5901175 5901276 5903373 [...] (3368 flits)
Measured flits: 5856412 5921403 5926529 5926629 5952173 5952211 5952487 5952626 5953648 5953744 [...] (151 flits)
Class 1:
Remaining flits: 2767162 5800912 5823175 5830237 5831095 5835396 5881609 5881795 5886735 5896746 [...] (4593 flits)
Measured flits: 2767162 5800912 5823175 5830237 5831095 5835396 5881609 5881795 5896746 5939795 [...] (1204 flits)
DVFS epoch t=170000 total_power=0.874185 headroom=-0.174185 avg_power=0.76331 domains{0:freq=0.63093,power=0.874185} routers{0:freq=0.63093,power=0.0445173, 1:freq=0.706074,power=0.0488948, 2:freq=0.727408,power=0.0498226, 3:freq=0.761416,power=0.0509063, 4:freq=0.76568,power=0.0527785, 5:freq=0.83929,power=0.0567694, 6:freq=0.71857,power=0.0501803, 7:freq=0.9,power=0.0595201, 8:freq=0.831606,power=0.0571141, 9:freq=0.9,power=0.0610712, 10:freq=0.802362,power=0.0553294, 11:freq=0.9,power=0.060288, 12:freq=0.756595,power=0.0513116, 13:freq=0.9,power=0.0598956, 14:freq=0.867612,power=0.0571974, 15:freq=0.9,power=0.0585879}
QUEUE_PID_DIFF: epoch=17 max_occ=0.615625 avg_occ=0.332715 budget=0.626747 headroom=-0.174185
Class 0:
Remaining flits: 5940880 5951985 5965182 5965355 5969597 5969719 5970262 5970354 5970428 5970602 [...] (2795 flits)
Measured flits: 5995947 (1 flits)
Class 1:
Remaining flits: 2767162 5800912 5831095 5835396 5881609 5881795 5886735 5896746 5970119 5985705 [...] (5824 flits)
Measured flits: 2767162 5800912 5831095 5835396 5881609 5881795 5896746 5970119 6000348 6000579 [...] (2149 flits)
Class 0:
Remaining flits: 6022452 6023917 6023966 6024159 6024308 6024714 6024861 6025047 6025643 6026022 [...] (3053 flits)
Measured flits: (0 flits)
Class 1:
Remaining flits: 2767162 5831095 5881795 6021859 6024812 6025218 6025812 6026023 6026363 6027979 [...] (6146 flits)
Measured flits: 2767162 5831095 5881795 6021859 6024812 6025218 6025812 6026023 6026363 6027979 [...] (2051 flits)
Class 0:
Remaining flits: 6024308 6031358 6031865 6046594 6047080 6047806 6048241 6048447 6053403 6053531 [...] (3500 flits)
Measured flits: (0 flits)
Class 1:
Remaining flits: 2767162 5831095 5881795 6046123 6047534 6048730 6051525 6051953 6055215 6055978 [...] (5308 flits)
Measured flits: 2767162 5831095 5881795 6046123 6047534 6048730 6051525 6051953 6055215 6055978 [...] (1366 flits)
Class 0:
Remaining flits: 6031865 6059660 6060295 6060373 6067546 6069267 6069343 6069425 6069504 6070662 [...] (4074 flits)
Measured flits: (0 flits)
Class 1:
Remaining flits: 2767162 6064297 6066665 6066960 6067213 6067279 6067351 6067626 6067749 6069930 [...] (5142 flits)
Measured flits: 2767162 6064297 6066665 6066960 6067213 6067279 6067351 6067626 6067749 6069930 [...] (934 flits)
Class 0:
Remaining flits: 6031865 6060295 6060373 6069343 6070662 6070984 6073279 6073417 6073436 6073454 [...] (4159 flits)
Measured flits: (0 flits)
Class 1:
Remaining flits: 2767162 6067279 6067749 6069930 6071018 6071826 6076541 6076614 6081133 6083194 [...] (4933 flits)
Measured flits: 2767162 6067279 6067749 6069930 6071018 6071826 6076541 6076614 6081133 6083194 [...] (913 flits)
Class 0:
Remaining flits: 6031865 6060295 6060373 6073417 6073496 6073564 6073677 6073785 6073827 6073859 [...] (4326 flits)
Measured flits: (0 flits)
Class 1:
Remaining flits: 2767162 6067279 6067749 6071018 6071826 6076541 6076614 6083972 6084013 6084079 [...] (4665 flits)
Measured flits: 2767162 6067279 6067749 6071018 6071826 6076541 6076614 6083972 6084013 6084079 [...] (770 flits)
Class 0:
Remaining flits: 6031865 6060295 6060373 6073496 6073564 6073677 6073785 6073827 6073859 6074131 [...] (4357 flits)
Measured flits: (0 flits)
Class 1:
Remaining flits: 2767162 6067749 6071018 6071826 6084118 6084186 6084263 6086042 6086351 6086385 [...] (4679 flits)
Measured flits: 2767162 6067749 6071018 6071826 6084118 6084186 6084263 6086042 6086351 6086385 [...] (808 flits)
Class 0:
Remaining flits: 6060295 6060373 6073496 6073564 6073677 6073827 6073859 6074131 6074494 6074646 [...] (4380 flits)
Measured flits: (0 flits)
Class 1:
Remaining flits: 2767162 6067749 6071826 6084263 6086042 6086385 6086566 6086600 6094964 6098427 [...] (4852 flits)
Measured flits: 2767162 6067749 6071826 6084263 6086042 6086385 6086566 6086600 6094964 6098427 [...] (794 flits)
Class 0:
Remaining flits: 6073564 6104806 6104874 6104937 6105008 6110662 6111465 6163008 6163827 6164006 [...] (4271 flits)
Measured flits: (0 flits)
Class 1:
Remaining flits: 2767162 6067749 6071826 6086600 6098789 6099466 6111016 6111157 6149043 6165557 [...] (4717 flits)
Measured flits: 2767162 6067749 6071826 6086600 6098789 6099466 6111016 6111157 6149043 6165557 [...] (688 flits)
Class 0:
Remaining flits: 6105008 6163008 6164006 6169352 6169625 6169686 6169898 6169957 6170008 6185955 [...] (4244 flits)
Measured flits: (0 flits)
Class 1:
Remaining flits: 2767162 6067749 6071826 6098789 6099466 6111016 6111157 6149043 6165557 6234080 [...] (4242 flits)
Measured flits: 2767162 6067749 6071826 6098789 6099466 6111016 6111157 6149043 6165557 6263207 [...] (645 flits)
DVFS epoch t=180000 total_power=0.894285 headroom=-0.194285 avg_power=0.770586 domains{0:freq=0.9,power=0.894285} routers{0:freq=0.9,power=0.0612193, 1:freq=0.654642,power=0.0466256, 2:freq=0.848418,power=0.0574068, 3:freq=0.888769,power=0.0591972, 4:freq=0.639932,power=0.045679, 5:freq=0.9,power=0.0607238, 6:freq=0.872519,power=0.0586855, 7:freq=0.9,power=0.0595813, 8:freq=0.897039,power=0.0608184, 9:freq=0.606054,power=0.0432541, 10:freq=0.631799,power=0.044733, 11:freq=0.733439,power=0.0500085, 12:freq=0.9,power=0.0623262, 13:freq=0.9,power=0.0616191, 14:freq=0.9,power=0.0619004, 15:freq=0.9,power=0.0605066}
QUEUE_PID_DIFF: epoch=18 max_occ=0.6625 avg_occ=0.373047 budget=0.583675 headroom=-0.194285
Class 0:
Remaining flits: 6105008 6169352 6169625 6169898 6170008 6185955 6201393 6201568 6207080 6207200 [...] (3311 flits)
Measured flits: (0 flits)
Class 1:
Remaining flits: 2767162 6067749 6098789 6099466 6111157 6149043 6165557 6278495 6292598 6298436 [...] (5160 flits)
Measured flits: 2767162 6067749 6098789 6099466 6111157 6149043 6165557 6278495 6292598 6298436 [...] (1019 flits)
Class 0:
Remaining flits: 6244579 6244903 6269374 6283282 6291500 6298106 6304956 6305071 6306086 6314311 [...] (3070 flits)
Measured flits: (0 flits)
Class 1:
Remaining flits: 2767162 6067749 6099466 6111157 6149043 6345947 6350357 6353445 6353883 6354635 [...] (5578 flits)
Measured flits: 2767162 6067749 6099466 6111157 6149043 6350357 6354635 6360781 6361762 6363720 [...] (1413 flits)
Class 0:
Remaining flits: 6379764 6386840 6387850 6393158 6393540 6393795 6393952 6394019 6394852 6394891 [...] (3214 flits)
Measured flits: (0 flits)
Class 1:
Remaining flits: 2767162 6067749 6099466 6111157 6380459 6389894 6390808 6391166 6391483 6391552 [...] (5158 flits)
Measured flits: 2767162 6067749 6099466 6111157 6380459 6389894 6391166 6391483 6392984 6393516 [...] (1140 flits)
Class 0:
Remaining flits: 6403173 6403444 6404288 6405190 6405680 6406246 6406334 6407489 6407734 6407857 [...] (3572 flits)
Measured flits: (0 flits)
Class 1:
Remaining flits: 2767162 6067749 6099466 6111157 6403283 6404030 6405618 6405919 6406062 6407733 [...] (4233 flits)
Measured flits: 2767162 6067749 6099466 6111157 6404030 6406062 6407733 6408402 6408824 6408937 [...] (723 flits)
Class 0:
Remaining flits: 6403444 6407734 6407857 6409676 6409911 6410495 6411823 6411910 6412328 6412644 [...] (3908 flits)
Measured flits: (0 flits)
Class 1:
Remaining flits: 2767162 6067749 6099466 6111157 6407733 6424480 6425807 6426186 6426293 6426932 [...] (3972 flits)
Measured flits: 2767162 6067749 6099466 6111157 6407733 6424480 6425807 6426186 6426293 6426932 [...] (424 flits)
Class 0:
Remaining flits: 6409911 6410495 6412987 6414470 6414930 6415344 6416181 6423706 6424187 6424312 [...] (3955 flits)
Measured flits: (0 flits)
Class 1:
Remaining flits: 2767162 6067749 6099466 6111157 6426932 6435815 6439735 6450342 6459909 6461122 [...] (3883 flits)
Measured flits: 2767162 6067749 6099466 6111157 6426932 6435815 6439735 6450342 6459909 6461122 [...] (378 flits)
Class 0:
Remaining flits: 6423706 6433355 6434965 6435062 6435127 6435684 6439767 6440453 6450687 6450776 [...] (3975 flits)
Measured flits: (0 flits)
Class 1:
Remaining flits: 2767162 6067749 6099466 6111157 6426932 6435815 6464213 6465000 6471032 6471944 [...] (3967 flits)
Measured flits: 2767162 6067749 6099466 6111157 6426932 6435815 6464213 6465000 6471032 6471944 [...] (401 flits)
Class 0:
Remaining flits: 6433355 6450687 6453803 6453862 6456204 6472201 6474202 6474283 6474936 6477886 [...] (4302 flits)
Measured flits: (0 flits)
Class 1:
Remaining flits: 2767162 6067749 6099466 6111157 6426932 6435815 6471944 6487846 6488049 6488487 [...] (3442 flits)
Measured flits: 2767162 6067749 6099466 6111157 6426932 6435815 6471944 6487846 6488049 6488487 [...] (288 flits)
Class 0:
Remaining flits: 6456204 6474283 6483809 6487539 6487878 6487966 6489545 6489620 6493267 6493772 [...] (4139 flits)
Measured flits: (0 flits)
Class 1:
Remaining flits: 2767162 6067749 6099466 6111157 6426932 6435815 6471944 6488487 6508851 6509113 [...] (3771 flits)
Measured flits: 2767162 6067749 6099466 6111157 6426932 6435815 6471944 6488487 6508851 6509113 [...] (361 flits)
Class 0:
Remaining flits: 6493772 6494238 6494698 6498613 6523675 6523716 6523819 6524012 6525543 6526562 [...] (4036 flits)
Measured flits: (0 flits)
Class 1:
Remaining flits: 2767162 6067749 6099466 6111157 6426932 6435815 6471944 6488487 6509113 6509801 [...] (3913 flits)
Measured flits: 2767162 6067749 6099466 6111157 6426932 6435815 6471944 6488487 6509113 6509801 [...] (284 flits)
DVFS epoch t=190000 total_power=0.913283 headroom=-0.213283 avg_power=0.778096 domains{0:freq=0.658924,power=0.913283} routers{0:freq=0.658924,power=0.0475306, 1:freq=0.867513,power=0.0603864, 2:freq=0.9,power=0.0615817, 3:freq=0.9,power=0.0606701, 4:freq=0.860715,power=0.0596572, 5:freq=0.660733,power=0.0478284, 6:freq=0.716641,power=0.0504167, 7:freq=0.9,power=0.0608947, 8:freq=0.697369,power=0.0500566, 9:freq=0.9,power=0.0624489, 10:freq=0.898254,power=0.0617368, 11:freq=0.876029,power=0.0593868, 12:freq=0.641296,power=0.0463884, 13:freq=0.9,power=0.0621002, 14:freq=0.9,power=0.0613958, 15:freq=0.9,power=0.0608032}
QUEUE_PID_DIFF: epoch=19 max_occ=0.578906 avg_occ=0.353027 budget=0.542966 headroom=-0.213283
Class 0:
Remaining flits: 6493772 6525543 6543590 6543896 6546892 6546958 6551863 6552137 6552286 6552327 [...] (3313 flits)
Measured flits: (0 flits)
Class 1:
Remaining flits: 2767162 6067749 6099466 6111157 6426932 6435815 6471944 6488487 6509801 6528338 [...] (4124 flits)
Measured flits: 2767162 6067749 6099466 6111157 6426932 6435815 6471944 6488487 6509801 6528338 [...] (474 flits)
Class 0:
Remaining flits: 6525543 6546892 6557143 6558007 6561416 6561476 6561531 6563612 6563679 6576971 [...] (2997 flits)
Measured flits: (0 flits)
Class 1:
Remaining flits: 2767162 6067749 6099466 6111157 6488487 6509801 6528338 6640362 6658313 6664268 [...] (4717 flits)
Measured flits: 2767162 6067749 6099466 6111157 6488487 6509801 6528338 6640362 6664268 6664340 [...] (745 flits)
Class 0:
Remaining flits: 6631027 6672450 6672727 6672818 6674008 6674203 6679075 6679174 6679206 6679729 [...] (2666 flits)
Measured flits: (0 flits)
Class 1:
Remaining flits: 2767162 6067749 6099466 6111157 6695704 6699685 6700710 6702801 6704841 6709936 [...] (5287 flits)
Measured flits: 2767162 6067749 6099466 6111157 6699685 6700710 6702801 6704841 6709936 6710507 [...] (1196 flits)
Class 0:
Remaining flits: 6709116 6740257 6741083 6742238 6743184 6743555 6744063 6745846 6746441 6748569 [...] (2697 flits)
Measured flits: (0 flits)
Class 1:
Remaining flits: 2767162 6067749 6099466 6111157 6743447 6748150 6748194 6752519 6753155 6753380 [...] (5013 flits)
Measured flits: 2767162 6067749 6099466 6111157 6743447 6748150 6748194 6752519 6753380 6753400 [...] (1021 flits)
Class 0:
Remaining flits: 6754955 6755677 6763753 6764254 6764265 6767307 6767320 6768295 6768338 6769759 [...] (3174 flits)
Measured flits: (0 flits)
Class 1:
Remaining flits: 2767162 6067749 6099466 6111157 6769922 6770313 6771162 6772183 6772349 6772511 [...] (4464 flits)
Measured flits: 2767162 6067749 6099466 6111157 6769922 6771162 6772183 6772349 6772511 6773532 [...] (730 flits)
Class 0:
Remaining flits: 6773661 6774799 6775473 6775554 6782087 6782476 6782728 6783093 6783306 6783383 [...] (3528 flits)
Measured flits: (0 flits)
Class 1:
Remaining flits: 2767162 6067749 6099466 6111157 6772349 6775368 6775978 6776391 6781894 6782023 [...] (4445 flits)
Measured flits: 2767162 6067749 6099466 6111157 6772349 6775368 6775978 6776391 6781894 6782023 [...] (470 flits)
Class 0:
Remaining flits: 6783093 6783383 6788903 6789850 6791773 6791853 6791932 6797670 6798383 6801247 [...] (4000 flits)
Measured flits: (0 flits)
Class 1:
Remaining flits: 2767162 6099466 6111157 6792171 6800354 6809037 6810173 6814406 6815486 6819906 [...] (3944 flits)
Measured flits: 2767162 6099466 6111157 6792171 6800354 6809037 6810173 6814406 6815486 6820696 [...] (267 flits)
Class 0:
Remaining flits: 6807236 6807383 6815453 6815576 6815652 6815774 6816111 6823648 6823833 6825775 [...] (4360 flits)
Measured flits: (0 flits)
Class 1:
Remaining flits: 2767162 6099466 6111157 6792171 6821934 6826020 6827967 6829344 6829653 6833604 [...] (3929 flits)
Measured flits: 2767162 6099466 6111157 6792171 6821934 6826020 6827967 6829344 6829653 6833604 [...] (224 flits)
Class 0:
Remaining flits: 6807236 6815652 6823833 6830083 6830432 6831052 6831111 6836971 6840183 6840268 [...] (4410 flits)
Measured flits: (0 flits)
Class 1:
Remaining flits: 2767162 6099466 6111157 6792171 6826020 6829653 6837905 6840781 6844470 6854399 [...] (3743 flits)
Measured flits: 2767162 6099466 6111157 6792171 6826020 6829653 6837905 6840781 6844470 6854399 [...] (152 flits)
Class 0:
Remaining flits: 6850303 6852865 6857007 6857098 6857152 6857216 6857275 6857328 6861933 6864197 [...] (3953 flits)
Measured flits: (0 flits)
Class 1:
Remaining flits: 2767162 6099466 6111157 6792171 6829653 6837905 6840781 6844470 6854399 6894338 [...] (3741 flits)
Measured flits: 2767162 6099466 6111157 6792171 6829653 6837905 6840781 6844470 6854399 6900518 [...] (177 flits)
DVFS epoch t=200000 total_power=0.940736 headroom=-0.240736 avg_power=0.786228 domains{0:freq=0.838492,power=0.940736} routers{0:freq=0.838492,power=0.0595822, 1:freq=0.633497,power=0.0469144, 2:freq=0.9,power=0.0627653, 3:freq=0.9,power=0.062155, 4:freq=0.685865,power=0.0504498, 5:freq=0.867592,power=0.0617843, 6:freq=0.854481,power=0.0604062, 7:freq=0.9,power=0.0624187, 8:freq=0.864214,power=0.0612737, 9:freq=0.648507,power=0.0478802, 10:freq=0.9,power=0.0629688, 11:freq=0.9,power=0.0621675, 12:freq=0.9,power=0.0636056, 13:freq=0.694178,power=0.0509062, 14:freq=0.9,power=0.0630301, 15:freq=0.9,power=0.0624283}
QUEUE_PID_DIFF: epoch=20 max_occ=0.515625 avg_occ=0.34248 budget=0.5 headroom=-0.240736
Class 0:
Remaining flits: 6857098 6871291 6871568 6872402 6872448 6872503 6872599 6876083 6887025 6890981 [...] (2959 flits)
Measured flits: (0 flits)
Class 1:
Remaining flits: 2767162 6099466 6111157 6792171 6829653 6844470 6854399 6931837 6947110 6947329 [...] (4610 flits)
Measured flits: 2767162 6099466 6111157 6792171 6829653 6844470 6854399 6931837 6947790 6950438 [...] (584 flits)
Average latency for class 1 exceeded 5000 cycles. Aborting simulation.
Simulation unstable, ending ...
Total run time 213.711
1.85573e-13
1.01182e-14
8.2655e-14
1.09233e-13
1.89983e-13
5.84568e-13
3.37458e-13
1.11201e-12
8.52002e-14
1.49959e-12
4.63932e-14
1.01182e-14
2.06637e-14
1.56046e-14
1.89983e-13
8.35097e-14
8.43644e-14
3.57857e-13
2.13e-14
4.50637e-13
2.31966e-14
1.01182e-14
3.3062e-13
4.83744e-13
1.89983e-13
2.5888e-12
1.34983e-12
4.12861e-12
3.40801e-13
4.97629e-12
2.8975e-11
4.62959e-11
1.85573e-13
1.01182e-14
8.2655e-14
1.09233e-13
1.89983e-13
5.84568e-13
3.37458e-13
1.11201e-12
8.52002e-14
1.49959e-12
4.63932e-14
1.01182e-14
2.06637e-14
1.56046e-14
1.89983e-13
8.35097e-14
8.43644e-14
3.57857e-13
2.13e-14
4.50637e-13
2.31966e-14
1.01182e-14
3.3062e-13
4.83744e-13
1.89983e-13
2.5888e-12
1.34983e-12
4.12861e-12
3.40801e-13
4.97629e-12
2.8975e-11
4.63185e-11
1.85573e-13
1.01182e-14
8.2655e-14
1.09233e-13
1.89983e-13
5.84568e-13
3.37458e-13
1.11201e-12
8.52002e-14
1.49959e-12
4.63932e-14
1.01182e-14
2.06637e-14
1.56046e-14
1.89983e-13
8.35097e-14
8.43644e-14
3.57857e-13
2.13e-14
4.50637e-13
2.31966e-14
1.01182e-14
3.3062e-13
4.83744e-13
1.89983e-13
2.5888e-12
1.34983e-12
4.12861e-12
3.40801e-13
4.97629e-12
2.8975e-11
4.63135e-11
1.85573e-13
1.01182e-14
8.2655e-14
1.09233e-13
1.89983e-13
5.84568e-13
3.37458e-13
1.11201e-12
8.52002e-14
1.49959e-12
4.63932e-14
1.01182e-14
2.06637e-14
1.56046e-14
1.89983e-13
8.35097e-14
8.43644e-14
3.57857e-13
2.13e-14
4.50637e-13
2.31966e-14
1.01182e-14
3.3062e-13
4.83744e-13
1.89983e-13
2.5888e-12
1.34983e-12
4.12861e-12
3.40801e-13
4.97629e-12
2.8975e-11
4.62818e-11
1.85573e-13
1.01182e-14
8.2655e-14
1.09233e-13
1.89983e-13
5.84568e-13
3.37458e-13
1.11201e-12
8.52002e-14
1.49959e-12
4.63932e-14
1.01182e-14
2.06637e-14
1.56046e-14
1.89983e-13
8.35097e-14
8.43644e-14
3.57857e-13
2.13e-14
4.50637e-13
2.31966e-14
1.01182e-14
3.3062e-13
4.83744e-13
1.89983e-13
2.5888e-12
1.34983e-12
4.12861e-12
3.40801e-13
4.97629e-12
2.8975e-11
4.62462e-11
1.85573e-13
1.01182e-14
8.2655e-14
1.09233e-13
1.89983e-13
5.84568e-13
3.37458e-13
1.11201e-12
8.52002e-14
1.49959e-12
4.63932e-14
1.01182e-14
2.06637e-14
1.56046e-14
1.89983e-13
8.35097e-14
8.43644e-14
3.57857e-13
2.13e-14
4.50637e-13
2.31966e-14
1.01182e-14
3.3062e-13
4.83744e-13
1.89983e-13
2.5888e-12
1.34983e-12
4.12861e-12
3.40801e-13
4.97629e-12
2.8975e-11
4.62771e-11
1.85573e-13
1.01182e-14
8.2655e-14
1.09233e-13
1.89983e-13
5.84568e-13
3.37458e-13
1.11201e-12
8.52002e-14
1.49959e-12
4.63932e-14
1.01182e-14
2.06637e-14
1.56046e-14
1.89983e-13
8.35097e-14
8.43644e-14
3.57857e-13
2.13e-14
4.50637e-13
2.31966e-14
1.01182e-14
3.3062e-13
4.83744e-13
1.89983e-13
2.5888e-12
1.34983e-12
4.12861e-12
3.40801e-13
4.97629e-12
2.8975e-11
4.6301e-11
1.85573e-13
1.01182e-14
8.2655e-14
1.09233e-13
1.89983e-13
5.84568e-13
3.37458e-13
1.11201e-12
8.52002e-14
1.49959e-12
4.63932e-14
1.01182e-14
2.06637e-14
1.56046e-14
1.89983e-13
8.35097e-14
8.43644e-14
3.57857e-13
2.13e-14
4.50637e-13
2.31966e-14
1.01182e-14
3.3062e-13
4.83744e-13
1.89983e-13
2.5888e-12
1.34983e-12
4.12861e-12
3.40801e-13
4.97629e-12
2.8975e-11
4.62667e-11
1.85573e-13
1.01182e-14
8.2655e-14
1.09233e-13
1.89983e-13
5.84568e-13
3.37458e-13
1.11201e-12
8.52002e-14
1.49959e-12
4.63932e-14
1.01182e-14
2.06637e-14
1.56046e-14
1.89983e-13
8.35097e-14
8.43644e-14
3.57857e-13
2.13e-14
4.50637e-13
2.31966e-14
1.01182e-14
3.3062e-13
4.83744e-13
1.89983e-13
2.5888e-12
1.34983e-12
4.12861e-12
3.40801e-13
4.97629e-12
2.8975e-11
4.62568e-11
1.85573e-13
1.01182e-14
8.2655e-14
1.09233e-13
1.89983e-13
5.84568e-13
3.37458e-13
1.11201e-12
8.52002e-14
1.49959e-12
4.63932e-14
1.01182e-14
2.06637e-14
1.56046e-14
1.89983e-13
8.35097e-14
8.43644e-14
3.57857e-13
2.13e-14
4.50637e-13
2.31966e-14
1.01182e-14
3.3062e-13
4.83744e-13
1.89983e-13
2.5888e-12
1.34983e-12
4.12861e-12
3.40801e-13
4.97629e-12
2.8975e-11
4.62806e-11
1.85573e-13
1.01182e-14
8.2655e-14
1.09233e-13
1.89983e-13
5.84568e-13
3.37458e-13
1.11201e-12
8.52002e-14
1.49959e-12
4.63932e-14
1.01182e-14
2.06637e-14
1.56046e-14
1.89983e-13
8.35097e-14
8.43644e-14
3.57857e-13
2.13e-14
4.50637e-13
2.31966e-14
1.01182e-14
3.3062e-13
4.83744e-13
1.89983e-13
2.5888e-12
1.34983e-12
4.12861e-12
3.40801e-13
4.97629e-12
2.8975e-11
4.62962e-11
1.85573e-13
1.01182e-14
8.2655e-14
1.09233e-13
1.89983e-13
5.84568e-13
3.37458e-13
1.11201e-12
8.52002e-14
1.49959e-12
4.63932e-14
1.01182e-14
2.06637e-14
1.56046e-14
1.89983e-13
8.35097e-14
8.43644e-14
3.57857e-13
2.13e-14
4.50637e-13
2.31966e-14
1.01182e-14
3.3062e-13
4.83744e-13
1.89983e-13
2.5888e-12
1.34983e-12
4.12861e-12
3.40801e-13
4.97629e-12
2.8975e-11
4.62965e-11
1.85573e-13
1.01182e-14
8.2655e-14
1.09233e-13
1.89983e-13
5.84568e-13
3.37458e-13
1.11201e-12
8.52002e-14
1.49959e-12
4.63932e-14
1.01182e-14
2.06637e-14
1.56046e-14
1.89983e-13
8.35097e-14
8.43644e-14
3.57857e-13
2.13e-14
4.50637e-13
2.31966e-14
1.01182e-14
3.3062e-13
4.83744e-13
1.89983e-13
2.5888e-12
1.34983e-12
4.12861e-12
3.40801e-13
4.97629e-12
2.8975e-11
4.63183e-11
1.85573e-13
1.01182e-14
8.2655e-14
1.09233e-13
1.89983e-13
5.84568e-13
3.37458e-13
1.11201e-12
8.52002e-14
1.49959e-12
4.63932e-14
1.01182e-14
2.06637e-14
1.56046e-14
1.89983e-13
8.35097e-14
8.43644e-14
3.57857e-13
2.13e-14
4.50637e-13
2.31966e-14
1.01182e-14
3.3062e-13
4.83744e-13
1.89983e-13
2.5888e-12
1.34983e-12
4.12861e-12
3.40801e-13
4.97629e-12
2.8975e-11
4.62977e-11
1.85573e-13
1.01182e-14
8.2655e-14
1.09233e-13
1.89983e-13
5.84568e-13
3.37458e-13
1.11201e-12
8.52002e-14
1.49959e-12
4.63932e-14
1.01182e-14
2.06637e-14
1.56046e-14
1.89983e-13
8.35097e-14
8.43644e-14
3.57857e-13
2.13e-14
4.50637e-13
2.31966e-14
1.01182e-14
3.3062e-13
4.83744e-13
1.89983e-13
2.5888e-12
1.34983e-12
4.12861e-12
3.40801e-13
4.97629e-12
2.8975e-11
4.63066e-11
1.85573e-13
1.01182e-14
8.2655e-14
1.09233e-13
1.89983e-13
5.84568e-13
3.37458e-13
1.11201e-12
8.52002e-14
1.49959e-12
4.63932e-14
1.01182e-14
2.06637e-14
1.56046e-14
1.89983e-13
8.35097e-14
8.43644e-14
3.57857e-13
2.13e-14
4.50637e-13
2.31966e-14
1.01182e-14
3.3062e-13
4.83744e-13
1.89983e-13
2.5888e-12
1.34983e-12
4.12861e-12
3.40801e-13
4.97629e-12
2.8975e-11
4.63072e-11
1.85573e-13
1.01182e-14
8.2655e-14
1.09233e-13
1.89983e-13
5.84568e-13
3.37458e-13
1.11201e-12
8.52002e-14
1.49959e-12
4.63932e-14
1.01182e-14
2.06637e-14
1.56046e-14
1.89983e-13
8.35097e-14
8.43644e-14
3.57857e-13
2.13e-14
4.50637e-13
2.31966e-14
1.01182e-14
3.3062e-13
4.83744e-13
1.89983e-13
2.5888e-12
1.34983e-12
4.12861e-12
3.40801e-13
4.97629e-12
3.01535e-11
4.96296e-11
1.85573e-13
1.01182e-14
8.2655e-14
1.09233e-13
1.89983e-13
5.84568e-13
3.37458e-13
1.11201e-12
8.52002e-14
1.49959e-12
4.63932e-14
1.01182e-14
2.06637e-14
1.56046e-14
1.89983e-13
8.35097e-14
8.43644e-14
3.57857e-13
2.13e-14
4.50637e-13
2.31966e-14
1.01182e-14
3.3062e-13
4.83744e-13
1.89983e-13
2.5888e-12
1.34983e-12
4.12861e-12
3.40801e-13
4.97629e-12
3.01535e-11
4.80445e-11
1.85573e-13
1.01182e-14
8.2655e-14
1.09233e-13
1.89983e-13
5.84568e-13
3.37458e-13
1.11201e-12
8.52002e-14
1.49959e-12
4.63932e-14
1.01182e-14
2.06637e-14
1.56046e-14
1.89983e-13
8.35097e-14
8.43644e-14
3.57857e-13
2.13e-14
4.50637e-13
2.31966e-14
1.01182e-14
3.3062e-13
4.83744e-13
1.89983e-13
2.5888e-12
1.34983e-12
4.12861e-12
3.40801e-13
4.97629e-12
3.01535e-11
4.80451e-11
1.85573e-13
1.01182e-14
8.2655e-14
1.09233e-13
1.89983e-13
5.84568e-13
3.37458e-13
1.11201e-12
8.52002e-14
1.49959e-12
4.63932e-14
1.01182e-14
2.06637e-14
1.56046e-14
1.89983e-13
8.35097e-14
8.43644e-14
3.57857e-13
2.13e-14
4.50637e-13
2.31966e-14
1.01182e-14
3.3062e-13
4.83744e-13
1.89983e-13
2.5888e-12
1.34983e-12
4.12861e-12
3.40801e-13
4.97629e-12
3.01535e-11
4.80526e-11
1.85573e-13
1.01182e-14
8.2655e-14
1.09233e-13
1.89983e-13
5.84568e-13
3.37458e-13
1.11201e-12
8.52002e-14
1.49959e-12
4.63932e-14
1.01182e-14
2.06637e-14
1.56046e-14
1.89983e-13
8.35097e-14
8.43644e-14
3.57857e-13
2.13e-14
4.50637e-13
2.31966e-14
1.01182e-14
3.3062e-13
4.83744e-13
1.89983e-13
2.5888e-12
1.34983e-12
4.12861e-12
3.40801e-13
4.97629e-12
3.01535e-11
4.8044e-11
1.85573e-13
1.01182e-14
8.2655e-14
1.09233e-13
1.89983e-13
5.84568e-13
3.37458e-13
1.11201e-12
8.52002e-14
1.49959e-12
4.63932e-14
1.01182e-14
2.06637e-14
1.56046e-14
1.89983e-13
8.35097e-14
8.43644e-14
3.57857e-13
2.13e-14
4.50637e-13
2.31966e-14
1.01182e-14
3.3062e-13
4.83744e-13
1.89983e-13
2.5888e-12
1.34983e-12
4.12861e-12
3.40801e-13
4.97629e-12
3.01535e-11
4.80391e-11
1.85573e-13
1.01182e-14
8.2655e-14
1.09233e-13
1.89983e-13
5.84568e-13
3.37458e-13
1.11201e-12
8.52002e-14
1.49959e-12
4.63932e-14
1.01182e-14
2.06637e-14
1.56046e-14
1.89983e-13
8.35097e-14
8.43644e-14
3.57857e-13
2.13e-14
4.50637e-13
2.31966e-14
1.01182e-14
3.3062e-13
4.83744e-13
1.89983e-13
2.5888e-12
1.34983e-12
4.12861e-12
3.40801e-13
4.97629e-12
3.01535e-11
4.8035e-11
1.85573e-13
1.01182e-14
8.2655e-14
1.09233e-13
1.89983e-13
5.84568e-13
3.37458e-13
1.11201e-12
8.52002e-14
1.49959e-12
4.63932e-14
1.01182e-14
2.06637e-14
1.56046e-14
1.89983e-13
8.35097e-14
[...]
1.09233e-13
1.89983e-13
5.84568e-13
3.37458e-13
1.11201e-12
8.52002e-14
1.49959e-12
4.63932e-14
1.01182e-14
2.06637e-14
1.56046e-14
1.89983e-13
8.35097e-14
8.43644e-14
3.57857e-13
2.13e-14
4.50637e-13
2.31966e-14
1.01182e-14
3.3062e-13
4.83744e-13
1.89983e-13
2.5888e-12
1.34983e-12
4.12861e-12
3.40801e-13
4.97629e-12
4.78308e-11
6.52511e-11
1.85573e-13
1.01182e-14
8.2655e-14
1.09233e-13
1.89983e-13
5.84568e-13
3.37458e-13
1.11201e-12
8.52002e-14
1.49959e-12
4.63932e-14
1.01182e-14
2.06637e-14
1.56046e-14
1.89983e-13
8.35097e-14
8.43644e-14
3.57857e-13
2.13e-14
4.50637e-13
2.31966e-14
1.01182e-14
3.3062e-13
4.83744e-13
1.89983e-13
2.5888e-12
1.34983e-12
4.12861e-12
3.40801e-13
4.97629e-12
4.78308e-11
6.59338e-11
1.85573e-13
1.01182e-14
8.2655e-14
1.09233e-13
1.89983e-13
5.84568e-13
3.37458e-13
1.11201e-12
8.52002e-14
1.49959e-12
4.63932e-14
1.01182e-14
2.06637e-14
1.56046e-14
1.89983e-13
8.35097e-14
8.43644e-14
3.57857e-13
2.13e-14
4.50637e-13
2.31966e-14
1.01182e-14
3.3062e-13
4.83744e-13
1.89983e-13
2.5888e-12
1.34983e-12
4.12861e-12
3.40801e-13
4.97629e-12
4.78308e-11
6.48975e-11
1.85573e-13
1.01182e-14
8.2655e-14
1.09233e-13
1.89983e-13
5.84568e-13
3.37458e-13
1.11201e-12
8.52002e-14
1.49959e-12
4.63932e-14
1.01182e-14
2.06637e-14
1.56046e-14
1.89983e-13
8.35097e-14
8.43644e-14
3.57857e-13
2.13e-14
4.50637e-13
2.31966e-14
1.01182e-14
3.3062e-13
4.83744e-13
1.89983e-13
2.5888e-12
1.34983e-12
4.12861e-12
3.40801e-13
4.97629e-12
4.78308e-11
6.43903e-11
1.85573e-13
1.01182e-14
8.2655e-14
1.09233e-13
1.89983e-13
5.84568e-13
3.37458e-13
1.11201e-12
8.52002e-14
1.49959e-12
4.63932e-14
1.01182e-14
2.06637e-14
1.56046e-14
1.89983e-13
8.35097e-14
8.43644e-14
3.57857e-13
2.13e-14
4.50637e-13
2.31966e-14
1.01182e-14
3.3062e-13
4.83744e-13
1.89983e-13
2.5888e-12
1.34983e-12
4.12861e-12
3.40801e-13
4.97629e-12
4.78308e-11
6.37195e-11
1.85573e-13
1.01182e-14
8.2655e-14
1.09233e-13
1.89983e-13
5.84568e-13
3.37458e-13
1.11201e-12
8.52002e-14
1.49959e-12
4.63932e-14
1.01182e-14
2.06637e-14
1.56046e-14
1.89983e-13
8.35097e-14
8.43644e-14
3.57857e-13
2.13e-14
4.50637e-13
2.31966e-14
1.01182e-14
3.3062e-13
4.83744e-13
1.89983e-13
2.5888e-12
1.34983e-12
4.12861e-12
3.40801e-13
4.97629e-12
4.90093e-11
6.6313e-11
1.85573e-13
1.01182e-14
8.2655e-14
1.09233e-13
1.89983e-13
5.84568e-13
3.37458e-13
1.11201e-12
8.52002e-14
1.49959e-12
4.63932e-14
1.01182e-14
2.06637e-14
1.56046e-14
1.89983e-13
8.35097e-14
8.43644e-14
3.57857e-13
2.13e-14
4.50637e-13
2.31966e-14
1.01182e-14
3.3062e-13
4.83744e-13
1.89983e-13
2.5888e-12
1.34983e-12
4.12861e-12
3.40801e-13
4.97629e-12
4.90093e-11
6.89195e-11
1.85573e-13
1.01182e-14
8.2655e-14
1.09233e-13
1.89983e-13
5.84568e-13
3.37458e-13
1.11201e-12
8.52002e-14
1.49959e-12
4.63932e-14
1.01182e-14
2.06637e-14
1.56046e-14
1.89983e-13
8.35097e-14
8.43644e-14
3.57857e-13
2.13e-14
4.50637e-13
2.31966e-14
1.01182e-14
3.3062e-13
4.83744e-13
1.89983e-13
2.5888e-12
1.34983e-12
4.12861e-12
3.40801e-13
4.97629e-12
4.90093e-11
6.60228e-11
1.85573e-13
1.01182e-14
8.2655e-14
1.09233e-13
1.89983e-13
5.84568e-13
3.37458e-13
1.11201e-12
8.52002e-14
1.49959e-12
4.63932e-14
1.01182e-14
2.06637e-14
1.56046e-14
1.89983e-13
8.35097e-14
8.43644e-14
3.57857e-13
2.13e-14
4.50637e-13
2.31966e-14
1.01182e-14
3.3062e-13
4.83744e-13
1.89983e-13
2.5888e-12
1.34983e-12
4.12861e-12
3.40801e-13
4.97629e-12
4.90093e-11
6.51656e-11
1.85573e-13
1.01182e-14
8.2655e-14
1.09233e-13
1.89983e-13
5.84568e-13
3.37458e-13
1.11201e-12
8.52002e-14
1.49959e-12
4.63932e-14
1.01182e-14
2.06637e-14
1.56046e-14
1.89983e-13
8.35097e-14
8.43644e-14
3.57857e-13
2.13e-14
4.50637e-13
2.31966e-14
1.01182e-14
3.3062e-13
4.83744e-13
1.89983e-13
2.5888e-12
1.34983e-12
4.12861e-12
3.40801e-13
4.97629e-12
4.90093e-11
6.9052e-11
1.85573e-13
1.01182e-14
8.2655e-14
1.09233e-13
1.89983e-13
5.84568e-13
3.37458e-13
1.11201e-12
8.52002e-14
1.49959e-12
4.63932e-14
1.01182e-14
2.06637e-14
1.56046e-14
1.89983e-13
8.35097e-14
8.43644e-14
3.57857e-13
2.13e-14
4.50637e-13
2.31966e-14
1.01182e-14
3.3062e-13
4.83744e-13
1.89983e-13
2.5888e-12
1.34983e-12
4.12861e-12
3.40801e-13
4.97629e-12
4.90093e-11
6.58667e-11
1.85573e-13
1.01182e-14
8.2655e-14
1.09233e-13
1.89983e-13
5.84568e-13
3.37458e-13
1.11201e-12
8.52002e-14
1.49959e-12
4.63932e-14
1.01182e-14
2.06637e-14
1.56046e-14
1.89983e-13
8.35097e-14
8.43644e-14
3.57857e-13
2.13e-14
4.50637e-13
2.31966e-14
1.01182e-14
3.3062e-13
4.83744e-13
1.89983e-13
2.5888e-12
1.34983e-12
4.12861e-12
3.40801e-13
4.97629e-12
4.90093e-11
6.56956e-11
1.85573e-13
1.01182e-14
8.2655e-14
1.09233e-13
1.89983e-13
5.84568e-13
3.37458e-13
1.11201e-12
8.52002e-14
1.49959e-12
4.63932e-14
1.01182e-14
2.06637e-14
1.56046e-14
1.89983e-13
8.35097e-14
8.43644e-14
3.57857e-13
2.13e-14
4.50637e-13
2.31966e-14
1.01182e-14
3.3062e-13
4.83744e-13
1.89983e-13
2.5888e-12
1.34983e-12
4.12861e-12
3.40801e-13
4.97629e-12
4.90093e-11
6.48389e-11
1.85573e-13
1.01182e-14
8.2655e-14
1.09233e-13
1.89983e-13
5.84568e-13
3.37458e-13
1.11201e-12
8.52002e-14
1.49959e-12
4.63932e-14
1.01182e-14
2.06637e-14
1.56046e-14
1.89983e-13
8.35097e-14
8.43644e-14
3.57857e-13
2.13e-14
4.50637e-13
2.31966e-14
1.01182e-14
3.3062e-13
4.83744e-13
1.89983e-13
2.5888e-12
1.34983e-12
4.12861e-12
3.40801e-13
4.97629e-12
4.90093e-11
6.61326e-11
1.85573e-13
1.01182e-14
8.2655e-14
1.09233e-13
1.89983e-13
5.84568e-13
3.37458e-13
1.11201e-12
8.52002e-14
1.49959e-12
4.63932e-14
1.01182e-14
2.06637e-14
1.56046e-14
1.89983e-13
8.35097e-14
8.43644e-14
3.57857e-13
2.13e-14
4.50637e-13
2.31966e-14
1.01182e-14
3.3062e-13
4.83744e-13
1.89983e-13
2.5888e-12
1.34983e-12
4.12861e-12
3.40801e-13
4.97629e-12
4.90093e-11
6.90595e-11
1.85573e-13
1.01182e-14
8.2655e-14
1.09233e-13
1.89983e-13
5.84568e-13
3.37458e-13
1.11201e-12
8.52002e-14
1.49959e-12
4.63932e-14
1.01182e-14
2.06637e-14
1.56046e-14
1.89983e-13
8.35097e-14
8.43644e-14
3.57857e-13
2.13e-14
4.50637e-13
2.31966e-14
1.01182e-14
3.3062e-13
4.83744e-13
1.89983e-13
2.5888e-12
1.34983e-12
4.12861e-12
3.40801e-13
4.97629e-12
4.90093e-11
6.85894e-11
1.85573e-13
1.01182e-14
8.2655e-14
1.09233e-13
1.89983e-13
5.84568e-13
3.37458e-13
1.11201e-12
8.52002e-14
1.49959e-12
4.63932e-14
1.01182e-14
2.06637e-14
1.56046e-14
1.89983e-13
8.35097e-14
8.43644e-14
3.57857e-13
2.13e-14
4.50637e-13
2.31966e-14
1.01182e-14
3.3062e-13
4.83744e-13
1.89983e-13
2.5888e-12
1.34983e-12
4.12861e-12
3.40801e-13
4.97629e-12
4.90093e-11
6.64486e-11
1.85573e-13
1.01182e-14
8.2655e-14
1.09233e-13
1.89983e-13
5.84568e-13
3.37458e-13
1.11201e-12
8.52002e-14
1.49959e-12
4.63932e-14
1.01182e-14
2.06637e-14
1.56046e-14
1.89983e-13
8.35097e-14
8.43644e-14
3.57857e-13
2.13e-14
4.50637e-13
2.31966e-14
1.01182e-14
3.3062e-13
4.83744e-13
1.89983e-13
2.5888e-12
1.34983e-12
4.12861e-12
3.40801e-13
4.97629e-12
4.90093e-11
6.73101e-11
1.85573e-13
1.01182e-14
8.2655e-14
1.09233e-13
1.89983e-13
5.84568e-13
3.37458e-13
1.11201e-12
8.52002e-14
1.49959e-12
4.63932e-14
1.01182e-14
2.06637e-14
1.56046e-14
1.89983e-13
8.35097e-14
8.43644e-14
3.57857e-13
2.13e-14
4.50637e-13
2.31966e-14
1.01182e-14
3.3062e-13
4.83744e-13
1.89983e-13
2.5888e-12
1.34983e-12
4.12861e-12
3.40801e-13
4.97629e-12
4.90093e-11
6.66765e-11
1.85573e-13
1.01182e-14
8.2655e-14
1.09233e-13
1.89983e-13
5.84568e-13
3.37458e-13
1.11201e-12
8.52002e-14
1.49959e-12
4.63932e-14
1.01182e-14
2.06637e-14
1.56046e-14
1.89983e-13
8.35097e-14
8.43644e-14
3.57857e-13
2.13e-14
4.50637e-13
2.31966e-14
1.01182e-14
3.3062e-13
4.83744e-13
1.89983e-13
2.5888e-12
1.34983e-12
4.12861e-12
3.40801e-13
4.97629e-12
4.90093e-11
6.6928e-11
1.85573e-13
1.01182e-14
8.2655e-14
1.09233e-13
1.89983e-13
5.84568e-13
3.37458e-13
1.11201e-12
8.52002e-14
1.49959e-12
4.63932e-14
1.01182e-14
2.06637e-14
1.56046e-14
1.89983e-13
8.35097e-14
8.43644e-14
3.57857e-13
2.13e-14
4.50637e-13
2.31966e-14
1.01182e-14
3.3062e-13
4.83744e-13
1.89983e-13
2.5888e-12
1.34983e-12
4.12861e-12
3.40801e-13
4.97629e-12
4.90093e-11
6.5671e-11
1.85573e-13
1.01182e-14
8.2655e-14
1.09233e-13
1.89983e-13
5.84568e-13
3.37458e-13
1.11201e-12
8.52002e-14
1.49959e-12
4.63932e-14
1.01182e-14
2.06637e-14
1.56046e-14
1.89983e-13
8.35097e-14
8.43644e-14
3.57857e-13
2.13e-14
4.50637e-13
2.31966e-14
1.01182e-14
3.3062e-13
4.83744e-13
1.89983e-13
2.5888e-12
1.34983e-12
4.12861e-12
3.40801e-13
4.97629e-12
5.01877e-11
6.98822e-11
1.85573e-13
1.01182e-14
8.2655e-14
1.09233e-13
1.89983e-13
5.84568e-13
3.37458e-13
1.11201e-12
8.52002e-14
1.49959e-12
4.63932e-14
1.01182e-14
2.06637e-14
1.56046e-14
1.89983e-13
8.35097e-14
8.43644e-14
3.57857e-13
2.13e-14
4.50637e-13
2.31966e-14
1.01182e-14
3.3062e-13
4.83744e-13
1.89983e-13
2.5888e-12
1.34983e-12
4.12861e-12
3.40801e-13
4.97629e-12
5.01877e-11
6.78227e-11
1.85573e-13
1.01182e-14
8.2655e-14
1.09233e-13
1.89983e-13
5.84568e-13
3.37458e-13
1.11201e-12
8.52002e-14
1.49959e-12
4.63932e-14
1.01182e-14
2.06637e-14
1.56046e-14
1.89983e-13
8.35097e-14
8.43644e-14
3.57857e-13
2.13e-14
4.50637e-13
2.31966e-14
1.01182e-14
3.3062e-13
4.83744e-13
1.89983e-13
2.5888e-12
1.34983e-12
4.12861e-12
3.40801e-13
4.97629e-12
5.01877e-11
6.68624e-11
1.85573e-13
1.01182e-14
8.2655e-14
1.09233e-13
1.89983e-13
5.84568e-13
3.37458e-13
1.11201e-12
8.52002e-14
1.49959e-12
4.63932e-14
1.01182e-14
2.06637e-14
1.56046e-14
1.89983e-13
8.35097e-14
8.43644e-14
3.57857e-13
2.13e-14
4.50637e-13
2.31966e-14
1.01182e-14
3.3062e-13
4.83744e-13
1.89983e-13
2.5888e-12
1.34983e-12
4.12861e-12
3.40801e-13
4.97629e-12
5.01877e-11
6.60413e-11
1.85573e-13
1.01182e-14
8.2655e-14
1.09233e-13
1.89983e-13
5.84568e-13
3.37458e-13
1.11201e-12
8.52002e-14
1.49959e-12
4.63932e-14
1.01182e-14
2.06637e-14
1.56046e-14
1.89983e-13
8.35097e-14
8.43644e-14
3.57857e-13
2.13e-14
4.50637e-13
2.31966e-14
1.01182e-14
3.3062e-13
4.83744e-13
1.89983e-13
2.5888e-12
1.34983e-12
4.12861e-12
3.40801e-13
4.97629e-12
5.01877e-11
6.75816e-11
1.85573e-13
1.01182e-14
8.2655e-14
1.09233e-13
1.89983e-13
5.84568e-13
3.37458e-13
1.11201e-12
8.52002e-14
1.49959e-12
4.63932e-14
1.01182e-14
2.06637e-14
1.56046e-14
1.89983e-13
8.35097e-14
8.43644e-14
3.57857e-13
2.13e-14
4.50637e-13
2.31966e-14
1.01182e-14
3.3062e-13
4.83744e-13
1.89983e-13
2.5888e-12
1.34983e-12
4.12861e-12
3.40801e-13
4.97629e-12
5.01877e-11
7.00906e-11
1.85573e-13
1.01182e-14
8.2655e-14
1.09233e-13
1.89983e-13
5.84568e-13
3.37458e-13
1.11201e-12
8.52002e-14
1.49959e-12
4.63932e-14
1.01182e-14
2.06637e-14
1.56046e-14
1.89983e-13
8.35097e-14
8.43644e-14
3.57857e-13
2.13e-14
4.50637e-13
2.31966e-14
1.01182e-14
3.3062e-13
4.83744e-13
1.89983e-13
2.5888e-12
1.34983e-12
4.12861e-12
3.40801e-13
4.97629e-12
5.01877e-11
6.84279e-11
1.85573e-13
1.01182e-14
8.2655e-14
1.09233e-13
1.89983e-13
5.84568e-13
3.37458e-13
1.11201e-12
8.52002e-14
1.49959e-12
4.63932e-14
1.01182e-14
2.06637e-14
1.56046e-14
1.89983e-13
8.35097e-14
8.43644e-14
3.57857e-13
2.13e-14
4.50637e-13
2.31966e-14
1.01182e-14
3.3062e-13
4.83744e-13
1.89983e-13
2.5888e-12
1.34983e-12
4.12861e-12
3.40801e-13
4.97629e-12
5.01877e-11
6.62435e-11
1.85573e-13
1.01182e-14
8.2655e-14
1.09233e-13
1.89983e-13
5.84568e-13
3.37458e-13
1.11201e-12
8.52002e-14
1.49959e-12
4.63932e-14
1.01182e-14
2.06637e-14
1.56046e-14
1.89983e-13
8.35097e-14
8.43644e-14
3.57857e-13
2.13e-14
4.50637e-13
2.31966e-14
1.01182e-14
3.3062e-13
4.83744e-13
1.89983e-13
2.5888e-12
1.34983e-12
4.12861e-12
3.40801e-13
4.97629e-12
5.01877e-11
6.95913e-11
1.85573e-13
1.01182e-14
8.2655e-14
1.09233e-13
1.89983e-13
5.84568e-13
3.37458e-13
1.11201e-12
8.52002e-14
1.49959e-12
4.63932e-14
1.01182e-14
2.06637e-14
1.56046e-14
1.89983e-13
8.35097e-14
8.43644e-14
3.57857e-13
2.13e-14
4.50637e-13
2.31966e-14
1.01182e-14
3.3062e-13
4.83744e-13
1.89983e-13
2.5888e-12
1.34983e-12
4.12861e-12
3.40801e-13
4.97629e-12
5.01877e-11
6.76437e-11
1.85573e-13
1.01182e-14
8.2655e-14
1.09233e-13
1.89983e-13
5.84568e-13
3.37458e-13
1.11201e-12
8.52002e-14
1.49959e-12
4.63932e-14
1.01182e-14
2.06637e-14
1.56046e-14
1.89983e-13
8.35097e-14
8.43644e-14
3.57857e-13
2.13e-14
4.50637e-13
2.31966e-14
1.01182e-14
3.3062e-13
4.83744e-13
1.89983e-13
2.5888e-12
1.34983e-12
4.12861e-12
3.40801e-13
4.97629e-12
5.01877e-11
6.71102e-11
1.85573e-13
1.01182e-14
8.2655e-14
1.09233e-13
1.89983e-13
5.84568e-13
3.37458e-13
1.11201e-12
8.52002e-14
1.49959e-12
4.63932e-14
1.01182e-14
2.06637e-14
1.56046e-14
1.89983e-13
8.35097e-14
8.43644e-14
3.57857e-13
2.13e-14
4.50637e-13
2.31966e-14
1.01182e-14
3.3062e-13
4.83744e-13
1.89983e-13
2.5888e-12
1.34983e-12
4.12861e-12
3.40801e-13
4.97629e-12
5.01877e-11
6.63491e-11
1.85573e-13
1.01182e-14
8.2655e-14
1.09233e-13
1.89983e-13
5.84568e-13
3.37458e-13
1.11201e-12
8.52002e-14
1.49959e-12
4.63932e-14
1.01182e-14
2.06637e-14
1.56046e-14
1.89983e-13
8.35097e-14
8.43644e-14
3.57857e-13
2.13e-14
4.50637e-13
2.31966e-14
1.01182e-14
3.3062e-13
4.83744e-13
1.89983e-13
2.5888e-12
1.34983e-12
4.12861e-12
3.40801e-13
4.97629e-12
5.01877e-11
7.00553e-11
1.85573e-13
1.01182e-14
8.2655e-14
1.09233e-13
1.89983e-13
5.84568e-13
3.37458e-13
1.11201e-12
8.52002e-14
1.49959e-12
4.63932e-14
1.01182e-14
2.06637e-14
1.56046e-14
1.89983e-13
8.35097e-14
8.43644e-14
3.57857e-13
2.13e-14
4.50637e-13
2.31966e-14
1.01182e-14
3.3062e-13
4.83744e-13
1.89983e-13
2.5888e-12
1.34983e-12
4.12861e-12
3.40801e-13
4.97629e-12
5.01877e-11
6.73295e-11
1.85573e-13
1.01182e-14
8.2655e-14
1.09233e-13
1.89983e-13
5.84568e-13
3.37458e-13
1.11201e-12
8.52002e-14
1.49959e-12
4.63932e-14
1.01182e-14
2.06637e-14
1.56046e-14
1.89983e-13
8.35097e-14
8.43644e-14
3.57857e-13
2.13e-14
4.50637e-13
2.31966e-14
1.01182e-14
3.3062e-13
4.83744e-13
1.89983e-13
2.5888e-12
1.34983e-12
4.12861e-12
3.40801e-13
4.97629e-12
5.01877e-11
6.6695e-11
1.85573e-13
1.01182e-14
8.2655e-14
1.09233e-13
1.89983e-13
5.84568e-13
3.37458e-13
1.11201e-12
8.52002e-14
1.49959e-12
4.63932e-14
1.01182e-14
2.06637e-14
1.56046e-14
1.89983e-13
8.35097e-14
8.43644e-14
3.57857e-13
2.13e-14
4.50637e-13
2.31966e-14
1.01182e-14
3.3062e-13
4.83744e-13
1.89983e-13
2.5888e-12
1.34983e-12
4.12861e-12
3.40801e-13
4.97629e-12
5.01877e-11
6.61627e-11
1.85573e-13
1.01182e-14
8.2655e-14
1.09233e-13
1.89983e-13
5.84568e-13
3.37458e-13
1.11201e-12
8.52002e-14
1.49959e-12
4.63932e-14
1.01182e-14
2.06637e-14
1.56046e-14
1.89983e-13
8.35097e-14
8.43644e-14
3.57857e-13
2.13e-14
4.50637e-13
2.31966e-14
1.01182e-14
3.3062e-13
4.83744e-13
1.89983e-13
2.5888e-12
1.34983e-12
4.12861e-12
3.40801e-13
4.97629e-12
5.13662e-11
6.92214e-11
1.85573e-13
1.01182e-14
8.2655e-14
1.09233e-13
1.89983e-13
5.84568e-13
3.37458e-13
1.11201e-12
8.52002e-14
1.49959e-12
4.63932e-14
1.01182e-14
2.06637e-14
1.56046e-14
1.89983e-13
8.35097e-14
8.43644e-14
3.57857e-13
2.13e-14
4.50637e-13
2.31966e-14
1.01182e-14
3.3062e-13
4.83744e-13
1.89983e-13
2.5888e-12
1.34983e-12
4.12861e-12
3.40801e-13
4.97629e-12
5.13662e-11
7.16654e-11
1.85573e-13
1.01182e-14
8.2655e-14
1.09233e-13
1.89983e-13
5.84568e-13
3.37458e-13
1.11201e-12
8.52002e-14
1.49959e-12
4.63932e-14
1.01182e-14
2.06637e-14
1.56046e-14
1.89983e-13
8.35097e-14
8.43644e-14
3.57857e-13
2.13e-14
4.50637e-13
2.31966e-14
1.01182e-14
3.3062e-13
4.83744e-13
1.89983e-13
2.5888e-12
1.34983e-12
4.12861e-12
3.40801e-13
4.97629e-12
5.13662e-11
6.81521e-11
1.85573e-13
1.01182e-14
8.2655e-14
1.09233e-13
1.89983e-13
5.84568e-13
3.37458e-13
1.11201e-12
8.52002e-14
1.49959e-12
4.63932e-14
1.01182e-14
2.06637e-14
1.56046e-14
1.89983e-13
8.35097e-14
8.43644e-14
3.57857e-13
2.13e-14
4.50637e-13
2.31966e-14
1.01182e-14
3.3062e-13
4.83744e-13
1.89983e-13
2.5888e-12
1.34983e-12
4.12861e-12
3.40801e-13
4.97629e-12
5.13662e-11
6.76043e-11
1.85573e-13
1.01182e-14
8.2655e-14
1.09233e-13
1.89983e-13
5.84568e-13
3.37458e-13
1.11201e-12
8.52002e-14
1.49959e-12
4.63932e-14
1.01182e-14
2.06637e-14
1.56046e-14
1.89983e-13
8.35097e-14
8.43644e-14
3.57857e-13
2.13e-14
4.50637e-13
2.31966e-14
1.01182e-14
3.3062e-13
4.83744e-13
1.89983e-13
2.5888e-12
1.34983e-12
4.12861e-12
3.40801e-13
4.97629e-12
5.13662e-11
7.12525e-11
1.85573e-13
1.01182e-14
8.2655e-14
1.09233e-13
1.89983e-13
5.84568e-13
3.37458e-13
1.11201e-12
8.52002e-14
1.49959e-12
4.63932e-14
1.01182e-14
2.06637e-14
1.56046e-14
1.89983e-13
8.35097e-14
8.43644e-14
3.57857e-13
2.13e-14
4.50637e-13
2.31966e-14
1.01182e-14
3.3062e-13
4.83744e-13
1.89983e-13
2.5888e-12
1.34983e-12
4.12861e-12
3.40801e-13
4.97629e-12
5.13662e-11
6.93469e-11
1.85573e-13
1.01182e-14
8.2655e-14
1.09233e-13
1.89983e-13
5.84568e-13
3.37458e-13
1.11201e-12
8.52002e-14
1.49959e-12
4.63932e-14
1.01182e-14
2.06637e-14
1.56046e-14
1.89983e-13
8.35097e-14
8.43644e-14
3.57857e-13
2.13e-14
4.50637e-13
2.31966e-14
1.01182e-14
3.3062e-13
4.83744e-13
1.89983e-13
2.5888e-12
1.34983e-12
4.12861e-12
3.40801e-13
4.97629e-12
5.13662e-11
6.89254e-11
1.85573e-13
1.01182e-14
8.2655e-14
1.09233e-13
1.89983e-13
5.84568e-13
3.37458e-13
1.11201e-12
8.52002e-14
1.49959e-12
4.63932e-14
1.01182e-14
2.06637e-14
1.56046e-14
1.89983e-13
8.35097e-14
8.43644e-14
3.57857e-13
2.13e-14
4.50637e-13
2.31966e-14
1.01182e-14
3.3062e-13
4.83744e-13
1.89983e-13
2.5888e-12
1.34983e-12
4.12861e-12
3.40801e-13
4.97629e-12
5.13662e-11
6.78395e-11
1.85573e-13
1.01182e-14
8.2655e-14
1.09233e-13
1.89983e-13
5.84568e-13
3.37458e-13
1.11201e-12
8.52002e-14
1.49959e-12
4.63932e-14
1.01182e-14
2.06637e-14
1.56046e-14
1.89983e-13
8.35097e-14
8.43644e-14
3.57857e-13
2.13e-14
4.50637e-13
2.31966e-14
1.01182e-14
3.3062e-13
4.83744e-13
1.89983e-13
2.5888e-12
1.34983e-12
4.12861e-12
3.40801e-13
4.97629e-12
5.13662e-11
6.90936e-11
1.85573e-13
1.01182e-14
8.2655e-14
1.09233e-13
1.89983e-13
5.84568e-13
3.37458e-13
1.11201e-12
8.52002e-14
1.49959e-12
4.63932e-14
1.01182e-14
2.06637e-14
1.56046e-14
1.89983e-13
8.35097e-14
8.43644e-14
3.57857e-13
2.13e-14
4.50637e-13
2.31966e-14
1.01182e-14
3.3062e-13
4.83744e-13
1.89983e-13
2.5888e-12
1.34983e-12
4.12861e-12
3.40801e-13
4.97629e-12
5.13662e-11
7.14836e-11
1.85573e-13
1.01182e-14
8.2655e-14
1.09233e-13
1.89983e-13
5.84568e-13
3.37458e-13
1.11201e-12
8.52002e-14
1.49959e-12
4.63932e-14
1.01182e-14
2.06637e-14
1.56046e-14
1.89983e-13
8.35097e-14
8.43644e-14
3.57857e-13
2.13e-14
4.50637e-13
2.31966e-14
1.01182e-14
3.3062e-13
4.83744e-13
1.89983e-13
2.5888e-12
1.34983e-12
4.12861e-12
3.40801e-13
4.97629e-12
5.13662e-11
6.8335e-11
1.85573e-13
1.01182e-14
8.2655e-14
1.09233e-13
1.89983e-13
5.84568e-13
3.37458e-13
1.11201e-12
8.52002e-14
1.49959e-12
4.63932e-14
1.01182e-14
2.06637e-14
1.56046e-14
1.89983e-13
8.35097e-14
8.43644e-14
3.57857e-13
2.13e-14
4.50637e-13
2.31966e-14
1.01182e-14
3.3062e-13
4.83744e-13
1.89983e-13
2.5888e-12
1.34983e-12
4.12861e-12
3.40801e-13
4.97629e-12
5.13662e-11
6.76131e-11
1.85573e-13
1.01182e-14
8.2655e-14
1.09233e-13
1.89983e-13
5.84568e-13
3.37458e-13
1.11201e-12
8.52002e-14
1.49959e-12
4.63932e-14
1.01182e-14
2.06637e-14
1.56046e-14
1.89983e-13
8.35097e-14
8.43644e-14
3.57857e-13
2.13e-14
4.50637e-13
2.31966e-14
1.01182e-14
3.3062e-13
4.83744e-13
1.89983e-13
2.5888e-12
1.34983e-12
4.12861e-12
3.40801e-13
4.97629e-12
5.13662e-11
6.89086e-11
1.85573e-13
1.01182e-14
8.2655e-14
1.09233e-13
1.89983e-13
5.84568e-13
3.37458e-13
1.11201e-12
8.52002e-14
1.49959e-12
4.63932e-14
1.01182e-14
2.06637e-14
1.56046e-14
1.89983e-13
8.35097e-14
8.43644e-14
3.57857e-13
2.13e-14
4.50637e-13
2.31966e-14
1.01182e-14
3.3062e-13
4.83744e-13
1.89983e-13
2.5888e-12
1.34983e-12
4.12861e-12
3.40801e-13
4.97629e-12
5.13662e-11
7.10769e-11
1.85573e-13
1.01182e-14
8.2655e-14
1.09233e-13
1.89983e-13
5.84568e-13
3.37458e-13
1.11201e-12
8.52002e-14
1.49959e-12
4.63932e-14
1.01182e-14
2.06637e-14
1.56046e-14
1.89983e-13
8.35097e-14
8.43644e-14
3.57857e-13
2.13e-14
4.50637e-13
2.31966e-14
1.01182e-14
3.3062e-13
4.83744e-13
1.89983e-13
2.5888e-12
1.34983e-12
4.12861e-12
3.40801e-13
4.97629e-12
5.13662e-11
6.83913e-11
1.85573e-13
1.01182e-14
8.2655e-14
1.09233e-13
1.89983e-13
5.84568e-13
3.37458e-13
1.11201e-12
8.52002e-14
1.49959e-12
4.63932e-14
1.01182e-14
2.06637e-14
1.56046e-14
1.89983e-13
8.35097e-14
8.43644e-14
3.57857e-13
2.13e-14
4.50637e-13
2.31966e-14
1.01182e-14
3.3062e-13
4.83744e-13
1.89983e-13
2.5888e-12
1.34983e-12
4.12861e-12
3.40801e-13
4.97629e-12
5.13662e-11
6.7848e-11
