BEGIN Configuration File: /Users/yash/Projects/wsc-noc-dvfs/final_paper_sims/flatfly/flatfly_perf_target_inj0.6_cap0.8/config.cfg

// Final Paper Simulation Config
// Topology: flatfly, Policy: perf_target
// Injection Rate: 0.6, Power Cap: 0.8W

// VC Configuration
read_request_begin_vc  = 0;
read_request_end_vc    = 5;
write_reply_begin_vc   = 2;
write_reply_end_vc     = 7;
read_reply_begin_vc    = 8;
read_reply_end_vc      = 12;
write_request_begin_vc = 10;
write_request_end_vc   = 15;
num_vcs     = 16;
vc_buf_size = 8;
wait_for_tail_credit = 0;
vc_allocator = max_size;
sw_allocator = max_size;
alloc_iters  = 2;
credit_delay   = 2;
routing_delay  = 0;
vc_alloc_delay = 1;
sw_alloc_delay = 1;
st_final_delay = 1;
input_speedup     = 1;
output_speedup    = 1;
internal_speedup  = 1.0;

// Detailed simulation settings (longer runs for accuracy)
sim_type = latency;
warmup_periods = 3;
sim_count = 1;
sample_period  = 10000;
max_samples = 15;
use_read_write = 0;
batch_size = 10000;
latency_thres = 5000;
packet_size = 1;

// Topology

topology = flatfly;
subnets = 1;
c  = 4;
k  = 4;
n  = 2;
x  = 4;
y  = 4;
xr = 2;
yr = 2;
limit = 64;
routing_function = ran_min;


// Traffic - 2 classes with different priorities
// Using uniform traffic with configurable injection rate
// Split injection: 30% control (class 0), 70% batch (class 1)
traffic = uniform;
injection_rate = {0.18,0.42};

// 2-class traffic for SLO-aware policies
classes = 2;
class_priority = {1,0};
class_slo = {50,-1};
priority_policy = static_class;

// Orion power model
use_orion = 1;
Vdd = 1.0;
Orion_tr = 0.2;
Orion_Freq = 1e9;
Orion_inport = 5;
Orion_outport = 5;
Orion_bitwidth = 128;
Orion_vc_class = 1;
Orion_IsSharedBuffIn = 0;
Orion_IsSharedBuffOut = 0;
Orion_crossbar_model = 0;
Orion_crsbar_degree = 4;
Orion_Cxbar_Cxpoint = 0;
Orion_trans_type = 0;
Orion_IsInBuff = 1;
Orion_out_buf_size = 0;
Orion_IsOutBuff = 0;
Orion_buff_type = 0;
Orion_in_arb_model = 1;
Orion_out_arb_model = 1;
Orion_allocator_model = 1;
Orion_in_vc_arb_model = 1;
Orion_out_vc_arb_model = 1;
wire_length = 1.0;

// Power cap
power_cap = 0.8;

// DVFS base settings
dvfs_epoch = 10000;
dvfs_log_interval = 10000;
dvfs_freqs = 1.0;
dvfs_voltages = 1.0;
router_domains = 0;

// Policy-specific settings

dvfs_policy = perf_target;
dvfs_min_scale = 0.5;
dvfs_max_scale = 1.0;
perf_target_metric = latency;
perf_target_value = 50.0;
perf_target_class = 0;
perf_target_kp = 0.05;
perf_target_per_router = 1;
perf_target_headroom_margin = 0.05;


// Output files
latency_csv = latency.csv;
stall_csv = stalls.csv;
throughput_csv = throughput.csv;
summary_csv = summary.csv;
energy_csv = energy.csv;
epoch_csv = epoch.csv;
dvfs_log = power_log;
output_dir = /Users/yash/Projects/wsc-noc-dvfs/final_paper_sims/flatfly;
run_name = flatfly_perf_target_inj0.6_cap0.8;

END Configuration File: /Users/yash/Projects/wsc-noc-dvfs/final_paper_sims/flatfly/flatfly_perf_target_inj0.6_cap0.8/config.cfg
 Flat Bufferfly 
 k = 4 n = 2 c = 4
 each switch - total radix =  10
 # of switches = 16
 # of channels = 96
 # of nodes ( size of network ) = 64
Class 0:
Packet latency average = 19.065
	minimum = 6
	maximum = 80
Network latency average = 19.065
	minimum = 6
	maximum = 80
Slowest packet = 119136
Flit latency average = 19.065
	minimum = 6
	maximum = 80
Slowest flit = 119136
Fragmentation average = 0
	minimum = 0
	maximum = 0
Injected packet rate average = 0.180136
	minimum = 0.1711 (at node 2)
	maximum = 0.1881 (at node 36)
Accepted packet rate average = 0.179808
	minimum = 0.168 (at node 17)
	maximum = 0.1897 (at node 27)
Injected flit rate average = 0.180136
	minimum = 0.1711 (at node 2)
	maximum = 0.1881 (at node 36)
Accepted flit rate average= 0.179808
	minimum = 0.168 (at node 17)
	maximum = 0.1897 (at node 27)
Injected packet length average = 1
Accepted packet length average = 1
Total in-flight flits = 210 (0 measured)
Buffer busy stall rate = 0
Buffer conflict stall rate = 0
Buffer full stall rate = 0
Buffer reserved stall rate = 0.0092625
Crossbar conflict stall rate = 1.48762
Class 1:
Packet latency average = 19.4415
	minimum = 6
	maximum = 77
Network latency average = 18.9877
	minimum = 6
	maximum = 75
Slowest packet = 163565
Flit latency average = 18.9877
	minimum = 6
	maximum = 75
Slowest flit = 163565
Fragmentation average = 0
	minimum = 0
	maximum = 0
Injected packet rate average = 0.419633
	minimum = 0.4089 (at node 18)
	maximum = 0.4322 (at node 45)
Accepted packet rate average = 0.418809
	minimum = 0.3994 (at node 31)
	maximum = 0.4391 (at node 28)
Injected flit rate average = 0.419633
	minimum = 0.4089 (at node 18)
	maximum = 0.4322 (at node 45)
Accepted flit rate average= 0.418809
	minimum = 0.3994 (at node 31)
	maximum = 0.4391 (at node 28)
Injected packet length average = 1
Accepted packet length average = 1
Total in-flight flits = 535 (0 measured)
Buffer busy stall rate = 0
Buffer conflict stall rate = 0
Buffer full stall rate = 0
Buffer reserved stall rate = 0.0221187
Crossbar conflict stall rate = 3.39899
latency change    = 1
throughput change = 1
latency change    = 1
throughput change = 1
DVFS epoch t=10000 total_power=0.768033 headroom=0.0319666 avg_power=0.768033 domains{0:freq=1,power=0.768033} routers{0:freq=1,power=0.0480081, 1:freq=1,power=0.0480354, 2:freq=1,power=0.0480292, 3:freq=1,power=0.0479905, 4:freq=1,power=0.0479463, 5:freq=1,power=0.0479847, 6:freq=1,power=0.0480142, 7:freq=1,power=0.0479721, 8:freq=1,power=0.0479596, 9:freq=1,power=0.0479888, 10:freq=1,power=0.0480083, 11:freq=1,power=0.0480085, 12:freq=1,power=0.0480352, 13:freq=1,power=0.04801, 14:freq=1,power=0.0480208, 15:freq=1,power=0.0480217}
PERF_TARGET_DIFF: epoch=1 latency=37 target=50 latency_ok=1 budget=1 headroom=0.0319666
Class 0:
Packet latency average = 19.8907
	minimum = 6
	maximum = 80
Network latency average = 19.8907
	minimum = 6
	maximum = 80
Slowest packet = 119136
Flit latency average = 19.8907
	minimum = 6
	maximum = 80
Slowest flit = 119136
Fragmentation average = 0
	minimum = 0
	maximum = 0
Injected packet rate average = 0.179615
	minimum = 0.17395 (at node 2)
	maximum = 0.18435 (at node 62)
Accepted packet rate average = 0.179433
	minimum = 0.1741 (at node 21)
	maximum = 0.1853 (at node 27)
Injected flit rate average = 0.179615
	minimum = 0.17395 (at node 2)
	maximum = 0.18435 (at node 62)
Accepted flit rate average= 0.179433
	minimum = 0.1741 (at node 21)
	maximum = 0.1853 (at node 27)
Injected packet length average = 1
Accepted packet length average = 1
Total in-flight flits = 233 (0 measured)
Buffer busy stall rate = 0
Buffer conflict stall rate = 0
Buffer full stall rate = 0
Buffer reserved stall rate = 0.0150969
Crossbar conflict stall rate = 1.57669
Class 1:
Packet latency average = 20.2533
	minimum = 6
	maximum = 102
Network latency average = 19.802
	minimum = 6
	maximum = 102
Slowest packet = 647675
Flit latency average = 19.802
	minimum = 6
	maximum = 102
Slowest flit = 647675
Fragmentation average = 0
	minimum = 0
	maximum = 0
Injected packet rate average = 0.419726
	minimum = 0.4102 (at node 30)
	maximum = 0.42585 (at node 44)
Accepted packet rate average = 0.41931
	minimum = 0.4061 (at node 16)
	maximum = 0.43265 (at node 28)
Injected flit rate average = 0.419726
	minimum = 0.4102 (at node 30)
	maximum = 0.42585 (at node 44)
Accepted flit rate average= 0.41931
	minimum = 0.4061 (at node 16)
	maximum = 0.43265 (at node 28)
Injected packet length average = 1
Accepted packet length average = 1
Total in-flight flits = 537 (0 measured)
Buffer busy stall rate = 0
Buffer conflict stall rate = 0
Buffer full stall rate = 0
Buffer reserved stall rate = 0.0351906
Crossbar conflict stall rate = 3.61298
latency change    = 0.0415079
throughput change = 0.00208992
latency change    = 0.0400821
throughput change = 0.0011943
DVFS epoch t=20000 total_power=0.762748 headroom=0.0372523 avg_power=0.765391 domains{0:freq=0.9,power=0.762748} routers{0:freq=0.9,power=0.0451358, 1:freq=1,power=0.0491807, 2:freq=1,power=0.0491817, 3:freq=0.9,power=0.0451721, 4:freq=1,power=0.0491804, 5:freq=0.9,power=0.0451596, 6:freq=0.9,power=0.0451512, 7:freq=0.9,power=0.0451741, 8:freq=1,power=0.0491457, 9:freq=1,power=0.0491406, 10:freq=0.9,power=0.0452065, 11:freq=1,power=0.0491733, 12:freq=1,power=0.0491864, 13:freq=1,power=0.0491982, 14:freq=1,power=0.0491917, 15:freq=1,power=0.0491696}
PERF_TARGET_DIFF: epoch=2 latency=29 target=50 latency_ok=1 budget=1 headroom=0.0372523
Class 0:
Packet latency average = 22.3696
	minimum = 6
	maximum = 108
Network latency average = 22.3696
	minimum = 6
	maximum = 108
Slowest packet = 812281
Flit latency average = 22.3696
	minimum = 6
	maximum = 108
Slowest flit = 812281
Fragmentation average = 0
	minimum = 0
	maximum = 0
Injected packet rate average = 0.178775
	minimum = 0.1696 (at node 25)
	maximum = 0.1874 (at node 31)
Accepted packet rate average = 0.178752
	minimum = 0.1648 (at node 34)
	maximum = 0.1875 (at node 41)
Injected flit rate average = 0.178775
	minimum = 0.1696 (at node 25)
	maximum = 0.1874 (at node 31)
Accepted flit rate average= 0.178752
	minimum = 0.1648 (at node 34)
	maximum = 0.1875 (at node 41)
Injected packet length average = 1
Accepted packet length average = 1
Total in-flight flits = 248 (0 measured)
Buffer busy stall rate = 0
Buffer conflict stall rate = 0
Buffer full stall rate = 0
Buffer reserved stall rate = 0.0313563
Crossbar conflict stall rate = 1.87281
Class 1:
Packet latency average = 22.6864
	minimum = 6
	maximum = 122
Network latency average = 22.2428
	minimum = 6
	maximum = 119
Slowest packet = 811345
Flit latency average = 22.2428
	minimum = 6
	maximum = 119
Slowest flit = 811345
Fragmentation average = 0
	minimum = 0
	maximum = 0
Injected packet rate average = 0.419759
	minimum = 0.4084 (at node 47)
	maximum = 0.4269 (at node 28)
Accepted packet rate average = 0.419714
	minimum = 0.4036 (at node 14)
	maximum = 0.4367 (at node 63)
Injected flit rate average = 0.419759
	minimum = 0.4084 (at node 47)
	maximum = 0.4269 (at node 28)
Accepted flit rate average= 0.419714
	minimum = 0.4036 (at node 14)
	maximum = 0.4367 (at node 63)
Injected packet length average = 1
Accepted packet length average = 1
Total in-flight flits = 573 (0 measured)
Buffer busy stall rate = 0
Buffer conflict stall rate = 6.25e-06
Buffer full stall rate = 0
Buffer reserved stall rate = 0.0706937
Crossbar conflict stall rate = 4.29989
latency change    = 0.110816
throughput change = 0.00381116
latency change    = 0.10725
throughput change = 0.000962337
Warmed up ...Time used is 30000 cycles
DVFS epoch t=30000 total_power=0.760288 headroom=0.0397116 avg_power=0.76369 domains{0:freq=1,power=0.760288} routers{0:freq=1,power=0.0504047, 1:freq=0.9,power=0.0462022, 2:freq=0.9,power=0.0461839, 3:freq=1,power=0.050344, 4:freq=1,power=0.050346, 5:freq=1,power=0.0503496, 6:freq=1,power=0.0503941, 7:freq=0.9,power=0.0462505, 8:freq=0.9,power=0.046218, 9:freq=0.8,power=0.0421249, 10:freq=1,power=0.0503074, 11:freq=0.9,power=0.0462318, 12:freq=0.9,power=0.0462653, 13:freq=0.9,power=0.046189, 14:freq=0.9,power=0.0462363, 15:freq=0.9,power=0.0462407}
PERF_TARGET_DIFF: epoch=3 latency=0 target=50 latency_ok=1 budget=1 headroom=0.0397116
Class 0:
Packet latency average = 23.7359
	minimum = 6
	maximum = 185
Network latency average = 23.7359
	minimum = 6
	maximum = 185
Slowest packet = 1170113
Flit latency average = 23.7404
	minimum = 6
	maximum = 185
Slowest flit = 1170113
Fragmentation average = 0
	minimum = 0
	maximum = 0
Injected packet rate average = 0.180041
	minimum = 0.1711 (at node 8)
	maximum = 0.1887 (at node 46)
Accepted packet rate average = 0.179992
	minimum = 0.1666 (at node 48)
	maximum = 0.1885 (at node 57)
Injected flit rate average = 0.180041
	minimum = 0.1711 (at node 8)
	maximum = 0.1887 (at node 46)
Accepted flit rate average= 0.179992
	minimum = 0.1666 (at node 48)
	maximum = 0.1885 (at node 57)
Injected packet length average = 1
Accepted packet length average = 1
Total in-flight flits = 279 (279 measured)
Buffer busy stall rate = 0
Buffer conflict stall rate = 0
Buffer full stall rate = 0
Buffer reserved stall rate = 0.0408125
Crossbar conflict stall rate = 2.06907
Class 1:
Packet latency average = 24.0924
	minimum = 6
	maximum = 159
Network latency average = 23.6407
	minimum = 6
	maximum = 159
Slowest packet = 1172530
Flit latency average = 23.6416
	minimum = 6
	maximum = 159
Slowest flit = 1172530
Fragmentation average = 0
	minimum = 0
	maximum = 0
Injected packet rate average = 0.4204
	minimum = 0.4076 (at node 8)
	maximum = 0.4322 (at node 20)
Accepted packet rate average = 0.420272
	minimum = 0.4056 (at node 2)
	maximum = 0.436 (at node 26)
Injected flit rate average = 0.4204
	minimum = 0.4076 (at node 8)
	maximum = 0.4322 (at node 20)
Accepted flit rate average= 0.420272
	minimum = 0.4056 (at node 2)
	maximum = 0.436 (at node 26)
Injected packet length average = 1
Accepted packet length average = 1
Total in-flight flits = 648 (648 measured)
Buffer busy stall rate = 0
Buffer conflict stall rate = 0
Buffer full stall rate = 0
Buffer reserved stall rate = 0.0929062
Crossbar conflict stall rate = 4.76343
latency change    = 0.0575641
throughput change = 0.00689266
latency change    = 0.0583588
throughput change = 0.00132727
DVFS epoch t=40000 total_power=0.757001 headroom=0.0429988 avg_power=0.762018 domains{0:freq=0.9,power=0.757001} routers{0:freq=0.9,power=0.0473244, 1:freq=0.9,power=0.0473624, 2:freq=0.9,power=0.0473045, 3:freq=0.9,power=0.0472642, 4:freq=0.9,power=0.047374, 5:freq=0.9,power=0.04726, 6:freq=0.8,power=0.043098, 7:freq=0.8,power=0.0431154, 8:freq=0.9,power=0.0472591, 9:freq=1,power=0.051558, 10:freq=0.9,power=0.0473561, 11:freq=0.9,power=0.0473197, 12:freq=0.9,power=0.0472853, 13:freq=1,power=0.0515175, 14:freq=0.9,power=0.0473044, 15:freq=0.9,power=0.0472982}
PERF_TARGET_DIFF: epoch=4 latency=58 target=50 latency_ok=0 budget=1 headroom=0.0429988
Class 0:
Packet latency average = 34.976
	minimum = 6
	maximum = 639
Network latency average = 34.976
	minimum = 6
	maximum = 639
Slowest packet = 1802213
Flit latency average = 34.9661
	minimum = 6
	maximum = 639
Slowest flit = 1802213
Fragmentation average = 0
	minimum = 0
	maximum = 0
Injected packet rate average = 0.179955
	minimum = 0.17365 (at node 6)
	maximum = 0.18525 (at node 3)
Accepted packet rate average = 0.179747
	minimum = 0.17175 (at node 17)
	maximum = 0.18675 (at node 12)
Injected flit rate average = 0.179955
	minimum = 0.17365 (at node 6)
	maximum = 0.18525 (at node 3)
Accepted flit rate average= 0.179747
	minimum = 0.17175 (at node 17)
	maximum = 0.18675 (at node 12)
Injected packet length average = 1
Accepted packet length average = 1
Total in-flight flits = 514 (514 measured)
Buffer busy stall rate = 7.8125e-05
Buffer conflict stall rate = 0.00558125
Buffer full stall rate = 0
Buffer reserved stall rate = 0.350287
Crossbar conflict stall rate = 2.9112
Class 1:
Packet latency average = 35.0417
	minimum = 6
	maximum = 670
Network latency average = 34.5929
	minimum = 6
	maximum = 670
Slowest packet = 1821224
Flit latency average = 34.5816
	minimum = 6
	maximum = 670
Slowest flit = 1821224
Fragmentation average = 0
	minimum = 0
	maximum = 0
Injected packet rate average = 0.419574
	minimum = 0.41255 (at node 14)
	maximum = 0.4257 (at node 11)
Accepted packet rate average = 0.419075
	minimum = 0.4037 (at node 40)
	maximum = 0.43245 (at node 10)
Injected flit rate average = 0.419574
	minimum = 0.41255 (at node 14)
	maximum = 0.4257 (at node 11)
Accepted flit rate average= 0.419075
	minimum = 0.4037 (at node 40)
	maximum = 0.43245 (at node 10)
Injected packet length average = 1
Accepted packet length average = 1
Total in-flight flits = 1202 (1202 measured)
Buffer busy stall rate = 0.000184375
Buffer conflict stall rate = 0.0134156
Buffer full stall rate = 0
Buffer reserved stall rate = 0.787772
Crossbar conflict stall rate = 6.69741
latency change    = 0.321365
throughput change = 0.00136477
latency change    = 0.312465
throughput change = 0.00285599
DVFS epoch t=50000 total_power=0.729163 headroom=0.0708372 avg_power=0.755447 domains{0:freq=1,power=0.729163} routers{0:freq=1,power=0.0526946, 1:freq=1,power=0.0527571, 2:freq=0.6875,power=0.0390812, 3:freq=0.75,power=0.0417457, 4:freq=1,power=0.0526539, 5:freq=0.675,power=0.0385222, 6:freq=1,power=0.0527377, 7:freq=1,power=0.052702, 8:freq=0.725,power=0.0406852, 9:freq=0.6875,power=0.0390304, 10:freq=0.7,power=0.0395921, 11:freq=0.6875,power=0.0390308, 12:freq=1,power=0.0526752, 13:freq=0.7375,power=0.0412546, 14:freq=0.7375,power=0.0412818, 15:freq=1,power=0.0527185}
PERF_TARGET_DIFF: epoch=5 latency=213 target=50 latency_ok=0 budget=1 headroom=0.0708372
Class 0:
Packet latency average = 161.432
	minimum = 6
	maximum = 6056
Network latency average = 143.953
	minimum = 6
	maximum = 5766
Slowest packet = 2045870
Flit latency average = 143.866
	minimum = 6
	maximum = 5766
Slowest flit = 2045870
Fragmentation average = 0
	minimum = 0
	maximum = 0
Injected packet rate average = 0.178345
	minimum = 0.160733 (at node 15)
	maximum = 0.185133 (at node 19)
Accepted packet rate average = 0.175559
	minimum = 0.1691 (at node 41)
	maximum = 0.183367 (at node 12)
Injected flit rate average = 0.178345
	minimum = 0.160733 (at node 15)
	maximum = 0.185133 (at node 19)
Accepted flit rate average= 0.175559
	minimum = 0.1691 (at node 41)
	maximum = 0.183367 (at node 12)
Injected packet length average = 1
Accepted packet length average = 1
Total in-flight flits = 5616 (5616 measured)
Buffer busy stall rate = 1.9691
Buffer conflict stall rate = 1.80455
Buffer full stall rate = 0.541346
Buffer reserved stall rate = 1.40259
Crossbar conflict stall rate = 3.92436
Class 1:
Packet latency average = 219.058
	minimum = 6
	maximum = 7219
Network latency average = 96.7289
	minimum = 6
	maximum = 4637
Slowest packet = 1988417
Flit latency average = 96.6702
	minimum = 6
	maximum = 4637
Slowest flit = 2085526
Fragmentation average = 0
	minimum = 0
	maximum = 0
Injected packet rate average = 0.371331
	minimum = 0.308233 (at node 63)
	maximum = 0.424233 (at node 33)
Accepted packet rate average = 0.369233
	minimum = 0.3584 (at node 40)
	maximum = 0.381433 (at node 10)
Injected flit rate average = 0.371331
	minimum = 0.308233 (at node 63)
	maximum = 0.424233 (at node 33)
Accepted flit rate average= 0.369233
	minimum = 0.3584 (at node 40)
	maximum = 0.381433 (at node 10)
Injected packet length average = 1
Accepted packet length average = 1
Total in-flight flits = 4630 (4630 measured)
Buffer busy stall rate = 1.19763
Buffer conflict stall rate = 1.79882
Buffer full stall rate = 0.535929
Buffer reserved stall rate = 2.38388
Crossbar conflict stall rate = 7.99321
latency change    = 0.78334
throughput change = 0.0238523
latency change    = 0.840035
throughput change = 0.134989
DVFS epoch t=60000 total_power=0.597673 headroom=0.202327 avg_power=0.729151 domains{0:freq=0.524155,power=0.597673} routers{0:freq=0.524155,power=0.0302793, 1:freq=0.545894,power=0.0312164, 2:freq=1,power=0.0510578, 3:freq=0.666667,power=0.0358583, 4:freq=0.521739,power=0.0301943, 5:freq=1,power=0.0516769, 6:freq=0.533816,power=0.0303076, 7:freq=0.557971,power=0.031017, 8:freq=0.671498,power=0.0376764, 9:freq=0.707729,power=0.0391669, 10:freq=0.669082,power=0.0376574, 11:freq=1,power=0.0517318, 12:freq=0.548309,power=0.031249, 13:freq=0.714976,power=0.0387168, 14:freq=0.698068,power=0.0375269, 15:freq=0.589372,power=0.03234}
PERF_TARGET_DIFF: epoch=6 latency=2051 target=50 latency_ok=0 budget=1 headroom=0.202327
Class 0:
Packet latency average = 235.774
	minimum = 6
	maximum = 10743
Network latency average = 170.675
	minimum = 6
	maximum = 8064
Slowest packet = 2045870
Flit latency average = 170.596
	minimum = 6
	maximum = 8064
Slowest flit = 2163747
Fragmentation average = 0
	minimum = 0
	maximum = 0
Injected packet rate average = 0.179491
	minimum = 0.148775 (at node 63)
	maximum = 0.18505 (at node 32)
Accepted packet rate average = 0.1785
	minimum = 0.1745 (at node 41)
	maximum = 0.1849 (at node 12)
Injected flit rate average = 0.179491
	minimum = 0.148775 (at node 63)
	maximum = 0.18505 (at node 32)
Accepted flit rate average= 0.1785
	minimum = 0.1745 (at node 41)
	maximum = 0.1849 (at node 12)
Injected packet length average = 1
Accepted packet length average = 1
Total in-flight flits = 2792 (2792 measured)
Buffer busy stall rate = 3.1719
Buffer conflict stall rate = 2.7921
Buffer full stall rate = 0.811916
Buffer reserved stall rate = 1.62314
Crossbar conflict stall rate = 4.22518
Class 1:
Packet latency average = 780.398
	minimum = 6
	maximum = 16090
Network latency average = 112.696
	minimum = 6
	maximum = 5377
Slowest packet = 1988417
Flit latency average = 112.644
	minimum = 6
	maximum = 5377
Slowest flit = 2085701
Fragmentation average = 0
	minimum = 0
	maximum = 0
Injected packet rate average = 0.381456
	minimum = 0.231175 (at node 63)
	maximum = 0.42355 (at node 38)
Accepted packet rate average = 0.380549
	minimum = 0.37255 (at node 14)
	maximum = 0.392225 (at node 10)
Injected flit rate average = 0.381456
	minimum = 0.231175 (at node 63)
	maximum = 0.42355 (at node 38)
Accepted flit rate average= 0.380549
	minimum = 0.37255 (at node 14)
	maximum = 0.392225 (at node 10)
Injected packet length average = 1
Accepted packet length average = 1
Total in-flight flits = 2913 (2913 measured)
Buffer busy stall rate = 2.39601
Buffer conflict stall rate = 3.08987
Buffer full stall rate = 0.927556
Buffer reserved stall rate = 2.92011
Crossbar conflict stall rate = 9.26952
latency change    = 0.31531
throughput change = 0.0164741
latency change    = 0.719299
throughput change = 0.029736
DVFS epoch t=70000 total_power=0.867866 headroom=-0.0678657 avg_power=0.748967 domains{0:freq=1,power=0.867866} routers{0:freq=1,power=0.0557969, 1:freq=1,power=0.0556762, 2:freq=1,power=0.0553133, 3:freq=1,power=0.0545403, 4:freq=1,power=0.0550809, 5:freq=0.696855,power=0.0408378, 6:freq=1,power=0.0544409, 7:freq=1,power=0.053572, 8:freq=1,power=0.0555781, 9:freq=1,power=0.0557028, 10:freq=1,power=0.0555373, 11:freq=1,power=0.0559857, 12:freq=1,power=0.0556553, 13:freq=1,power=0.0554092, 14:freq=1,power=0.0548763, 15:freq=1,power=0.0538628}
PERF_TARGET_DIFF: epoch=7 latency=1892 target=50 latency_ok=0 budget=0.872752 headroom=-0.0678657
Class 0:
Packet latency average = 301.619
	minimum = 6
	maximum = 12113
Network latency average = 215.556
	minimum = 6
	maximum = 8064
Slowest packet = 2045870
Flit latency average = 215.473
	minimum = 6
	maximum = 8064
Slowest flit = 2163747
Fragmentation average = 0
	minimum = 0
	maximum = 0
Injected packet rate average = 0.178521
	minimum = 0.14508 (at node 63)
	maximum = 0.18496 (at node 5)
Accepted packet rate average = 0.176936
	minimum = 0.17312 (at node 52)
	maximum = 0.18142 (at node 12)
Injected flit rate average = 0.178521
	minimum = 0.14508 (at node 63)
	maximum = 0.18496 (at node 5)
Accepted flit rate average= 0.176936
	minimum = 0.17312 (at node 52)
	maximum = 0.18142 (at node 12)
Injected packet length average = 1
Accepted packet length average = 1
Total in-flight flits = 5341 (5341 measured)
Buffer busy stall rate = 3.97832
Buffer conflict stall rate = 3.50041
Buffer full stall rate = 1.03602
Buffer reserved stall rate = 1.78377
Crossbar conflict stall rate = 4.56407
Class 1:
Packet latency average = 1034.11
	minimum = 6
	maximum = 21929
Network latency average = 139.37
	minimum = 6
	maximum = 5377
Slowest packet = 1988417
Flit latency average = 139.312
	minimum = 6
	maximum = 5377
Slowest flit = 2085701
Fragmentation average = 0
	minimum = 0
	maximum = 0
Injected packet rate average = 0.355925
	minimum = 0.18494 (at node 63)
	maximum = 0.42202 (at node 51)
Accepted packet rate average = 0.354806
	minimum = 0.34786 (at node 40)
	maximum = 0.36462 (at node 10)
Injected flit rate average = 0.355925
	minimum = 0.18494 (at node 63)
	maximum = 0.42202 (at node 51)
Accepted flit rate average= 0.354806
	minimum = 0.34786 (at node 40)
	maximum = 0.36462 (at node 10)
Injected packet length average = 1
Accepted packet length average = 1
Total in-flight flits = 4188 (4188 measured)
Buffer busy stall rate = 2.74102
Buffer conflict stall rate = 3.57105
Buffer full stall rate = 1.09942
Buffer reserved stall rate = 3.00605
Crossbar conflict stall rate = 9.36257
latency change    = 0.218306
throughput change = 0.00883971
latency change    = 0.245343
throughput change = 0.0725558
DVFS epoch t=80000 total_power=0.622876 headroom=0.177124 avg_power=0.733206 domains{0:freq=0.515241,power=0.622876} routers{0:freq=0.515241,power=0.0310038, 1:freq=0.646018,power=0.0373567, 2:freq=0.677974,power=0.0383146, 3:freq=0.747788,power=0.0412897, 4:freq=0.571288,power=0.0338851, 5:freq=1,power=0.0541917, 6:freq=0.683382,power=0.0384811, 7:freq=0.726155,power=0.0401339, 8:freq=0.50885,power=0.030451, 9:freq=0.583579,power=0.0336506, 10:freq=0.516224,power=0.0310326, 11:freq=0.581121,power=0.0332193, 12:freq=0.602753,power=0.0353545, 13:freq=1,power=0.0540216, 14:freq=0.665192,power=0.0375479, 15:freq=1,power=0.0529424}
PERF_TARGET_DIFF: epoch=8 latency=2190 target=50 latency_ok=0 budget=1 headroom=0.177124
Class 0:
Packet latency average = 355.327
	minimum = 6
	maximum = 13592
Network latency average = 218.622
	minimum = 6
	maximum = 9187
Slowest packet = 2045870
Flit latency average = 218.553
	minimum = 6
	maximum = 9187
Slowest flit = 2756852
Fragmentation average = 0
	minimum = 0
	maximum = 0
Injected packet rate average = 0.180084
	minimum = 0.175417 (at node 31)
	maximum = 0.1843 (at node 5)
Accepted packet rate average = 0.179508
	minimum = 0.1751 (at node 52)
	maximum = 0.183517 (at node 9)
Injected flit rate average = 0.180084
	minimum = 0.175417 (at node 31)
	maximum = 0.1843 (at node 5)
Accepted flit rate average= 0.179508
	minimum = 0.1751 (at node 52)
	maximum = 0.183517 (at node 9)
Injected packet length average = 1
Accepted packet length average = 1
Total in-flight flits = 2466 (2466 measured)
Buffer busy stall rate = 4.27799
Buffer conflict stall rate = 3.87762
Buffer full stall rate = 1.06895
Buffer reserved stall rate = 1.83168
Crossbar conflict stall rate = 4.7667
Class 1:
Packet latency average = 1803.6
	minimum = 6
	maximum = 37528
Network latency average = 140.754
	minimum = 6
	maximum = 5377
Slowest packet = 1988417
Flit latency average = 140.707
	minimum = 6
	maximum = 5377
Slowest flit = 2085701
Fragmentation average = 0
	minimum = 0
	maximum = 0
Injected packet rate average = 0.371259
	minimum = 0.163783 (at node 63)
	maximum = 0.423 (at node 32)
Accepted packet rate average = 0.370547
	minimum = 0.365283 (at node 4)
	maximum = 0.37785 (at node 10)
Injected flit rate average = 0.371259
	minimum = 0.163783 (at node 63)
	maximum = 0.423 (at node 32)
Accepted flit rate average= 0.370547
	minimum = 0.365283 (at node 4)
	maximum = 0.37785 (at node 10)
Injected packet length average = 1
Accepted packet length average = 1
Total in-flight flits = 3317 (3317 measured)
Buffer busy stall rate = 3.14183
Buffer conflict stall rate = 4.16299
Buffer full stall rate = 1.19232
Buffer reserved stall rate = 3.20833
Crossbar conflict stall rate = 10.4363
latency change    = 0.151152
throughput change = 0.0143288
latency change    = 0.426642
throughput change = 0.0424818
DVFS epoch t=90000 total_power=0.916332 headroom=-0.116332 avg_power=0.753553 domains{0:freq=1,power=0.916332} routers{0:freq=1,power=0.0585195, 1:freq=1,power=0.0581631, 2:freq=1,power=0.0584085, 3:freq=1,power=0.0572914, 4:freq=1,power=0.0580642, 5:freq=0.731863,power=0.0447098, 6:freq=1,power=0.0573124, 7:freq=1,power=0.0566487, 8:freq=1,power=0.0587388, 9:freq=1,power=0.0585597, 10:freq=1,power=0.0584942, 11:freq=1,power=0.0575663, 12:freq=1,power=0.0585249, 13:freq=1,power=0.0585615, 14:freq=1,power=0.0588984, 15:freq=1,power=0.057871}
PERF_TARGET_DIFF: epoch=9 latency=1821 target=50 latency_ok=0 budget=0.781877 headroom=-0.116332
Class 0:
Packet latency average = 376.191
	minimum = 6
	maximum = 13592
Network latency average = 241.913
	minimum = 6
	maximum = 9187
Slowest packet = 2045870
Flit latency average = 241.846
	minimum = 6
	maximum = 9187
Slowest flit = 2756852
Fragmentation average = 0
	minimum = 0
	maximum = 0
Injected packet rate average = 0.179116
	minimum = 0.1651 (at node 31)
	maximum = 0.184314 (at node 19)
Accepted packet rate average = 0.178032
	minimum = 0.174671 (at node 52)
	maximum = 0.181743 (at node 12)
Injected flit rate average = 0.179116
	minimum = 0.1651 (at node 31)
	maximum = 0.184314 (at node 19)
Accepted flit rate average= 0.178032
	minimum = 0.174671 (at node 52)
	maximum = 0.181743 (at node 12)
Injected packet length average = 1
Accepted packet length average = 1
Total in-flight flits = 5129 (5129 measured)
Buffer busy stall rate = 4.98645
Buffer conflict stall rate = 4.27425
Buffer full stall rate = 1.28398
Buffer reserved stall rate = 2.11556
Crossbar conflict stall rate = 4.82479
Class 1:
Packet latency average = 2047.02
	minimum = 6
	maximum = 44741
Network latency average = 157.737
	minimum = 6
	maximum = 5637
Slowest packet = 1988417
Flit latency average = 157.689
	minimum = 6
	maximum = 5637
Slowest flit = 3375202
Fragmentation average = 0
	minimum = 0
	maximum = 0
Injected packet rate average = 0.358133
	minimum = 0.141014 (at node 31)
	maximum = 0.4218 (at node 20)
Accepted packet rate average = 0.357323
	minimum = 0.352257 (at node 62)
	maximum = 0.363843 (at node 10)
Injected flit rate average = 0.358133
	minimum = 0.141014 (at node 31)
	maximum = 0.4218 (at node 20)
Accepted flit rate average= 0.357323
	minimum = 0.352257 (at node 62)
	maximum = 0.363843 (at node 10)
Injected packet length average = 1
Accepted packet length average = 1
Total in-flight flits = 4234 (4234 measured)
Buffer busy stall rate = 3.62564
Buffer conflict stall rate = 4.52828
Buffer full stall rate = 1.4684
Buffer reserved stall rate = 3.61799
Crossbar conflict stall rate = 10.2757
latency change    = 0.0554611
throughput change = 0.00829277
latency change    = 0.118916
throughput change = 0.0370083
DVFS epoch t=100000 total_power=0.756846 headroom=0.0431541 avg_power=0.753883 domains{0:freq=0.544863,power=0.756846} routers{0:freq=0.544863,power=0.0340211, 1:freq=1,power=0.0565382, 2:freq=1,power=0.0562199, 3:freq=1,power=0.0557564, 4:freq=0.657019,power=0.0402087, 5:freq=1,power=0.0573514, 6:freq=1,power=0.0567508, 7:freq=1,power=0.0561268, 8:freq=0.518813,power=0.0323652, 9:freq=1,power=0.0564642, 10:freq=0.558611,power=0.034076, 11:freq=1,power=0.0557514, 12:freq=0.593343,power=0.0363037, 13:freq=0.544139,power=0.0339702, 14:freq=0.664255,power=0.0394322, 15:freq=1,power=0.0555096}
PERF_TARGET_DIFF: epoch=10 latency=2175 target=50 latency_ok=0 budget=1 headroom=0.0431541
Class 0:
Packet latency average = 397.083
	minimum = 6
	maximum = 13592
Network latency average = 245.392
	minimum = 6
	maximum = 9187
Slowest packet = 2045870
Flit latency average = 245.332
	minimum = 6
	maximum = 9187
Slowest flit = 2756852
Fragmentation average = 0
	minimum = 0
	maximum = 0
Injected packet rate average = 0.179465
	minimum = 0.160713 (at node 63)
	maximum = 0.183938 (at node 19)
Accepted packet rate average = 0.178881
	minimum = 0.175212 (at node 19)
	maximum = 0.182663 (at node 12)
Injected flit rate average = 0.179465
	minimum = 0.160713 (at node 63)
	maximum = 0.183938 (at node 19)
Accepted flit rate average= 0.178881
	minimum = 0.175212 (at node 19)
	maximum = 0.182663 (at node 12)
Injected packet length average = 1
Accepted packet length average = 1
Total in-flight flits = 3248 (3248 measured)
Buffer busy stall rate = 5.33705
Buffer conflict stall rate = 4.54691
Buffer full stall rate = 1.36201
Buffer reserved stall rate = 2.17614
Crossbar conflict stall rate = 4.83722
Class 1:
Packet latency average = 2480.38
	minimum = 6
	maximum = 53915
Network latency average = 160.13
	minimum = 6
	maximum = 5637
Slowest packet = 1988417
Flit latency average = 160.088
	minimum = 6
	maximum = 5637
Slowest flit = 3375202
Fragmentation average = 0
	minimum = 0
	maximum = 0
Injected packet rate average = 0.362778
	minimum = 0.123387 (at node 31)
	maximum = 0.421837 (at node 3)
Accepted packet rate average = 0.362201
	minimum = 0.358013 (at node 4)
	maximum = 0.36835 (at node 24)
Injected flit rate average = 0.362778
	minimum = 0.123387 (at node 31)
	maximum = 0.421837 (at node 3)
Accepted flit rate average= 0.362201
	minimum = 0.358013 (at node 4)
	maximum = 0.36835 (at node 24)
Injected packet length average = 1
Accepted packet length average = 1
Total in-flight flits = 3542 (3542 measured)
Buffer busy stall rate = 4.12182
Buffer conflict stall rate = 4.99016
Buffer full stall rate = 1.60114
Buffer reserved stall rate = 3.80227
Crossbar conflict stall rate = 10.5037
latency change    = 0.0526116
throughput change = 0.00475035
latency change    = 0.174712
throughput change = 0.013467
DVFS epoch t=110000 total_power=0.936977 headroom=-0.136977 avg_power=0.770528 domains{0:freq=1,power=0.936977} routers{0:freq=1,power=0.0602457, 1:freq=1,power=0.06019, 2:freq=1,power=0.0599884, 3:freq=1,power=0.0590734, 4:freq=1,power=0.0596276, 5:freq=0.696667,power=0.0440817, 6:freq=1,power=0.059266, 7:freq=1,power=0.0585641, 8:freq=1,power=0.0606217, 9:freq=1,power=0.0603243, 10:freq=1,power=0.0599613, 11:freq=1,power=0.0590583, 12:freq=1,power=0.0596724, 13:freq=1,power=0.0594398, 14:freq=1,power=0.0588213, 15:freq=1,power=0.058041}
PERF_TARGET_DIFF: epoch=11 latency=1900 target=50 latency_ok=0 budget=0.743168 headroom=-0.136977
Class 0:
Packet latency average = 430.871
	minimum = 6
	maximum = 13592
Network latency average = 262.735
	minimum = 6
	maximum = 9187
Slowest packet = 2045870
Flit latency average = 262.677
	minimum = 6
	maximum = 9187
Slowest flit = 2756852
Fragmentation average = 0
	minimum = 0
	maximum = 0
Injected packet rate average = 0.178828
	minimum = 0.158633 (at node 63)
	maximum = 0.183256 (at node 19)
Accepted packet rate average = 0.17796
	minimum = 0.174689 (at node 36)
	maximum = 0.181211 (at node 12)
Injected flit rate average = 0.178828
	minimum = 0.158633 (at node 63)
	maximum = 0.183256 (at node 19)
Accepted flit rate average= 0.17796
	minimum = 0.174689 (at node 36)
	maximum = 0.181211 (at node 12)
Injected packet length average = 1
Accepted packet length average = 1
Total in-flight flits = 5269 (5269 measured)
Buffer busy stall rate = 5.93194
Buffer conflict stall rate = 4.85929
Buffer full stall rate = 1.52072
Buffer reserved stall rate = 2.20276
Crossbar conflict stall rate = 4.84058
Class 1:
Packet latency average = 2672.87
	minimum = 6
	maximum = 59566
Network latency average = 169.399
	minimum = 6
	maximum = 5637
Slowest packet = 1988417
Flit latency average = 169.358
	minimum = 6
	maximum = 5637
Slowest flit = 3375202
Fragmentation average = 0
	minimum = 0
	maximum = 0
Injected packet rate average = 0.351309
	minimum = 0.109678 (at node 31)
	maximum = 0.420889 (at node 18)
Accepted packet rate average = 0.350675
	minimum = 0.345689 (at node 33)
	maximum = 0.356344 (at node 53)
Injected flit rate average = 0.351309
	minimum = 0.109678 (at node 31)
	maximum = 0.420889 (at node 18)
Accepted flit rate average= 0.350675
	minimum = 0.345689 (at node 33)
	maximum = 0.356344 (at node 53)
Injected packet length average = 1
Accepted packet length average = 1
Total in-flight flits = 4259 (4259 measured)
Buffer busy stall rate = 4.29619
Buffer conflict stall rate = 5.09361
Buffer full stall rate = 1.72259
Buffer reserved stall rate = 3.7569
Crossbar conflict stall rate = 10.2733
latency change    = 0.0784182
throughput change = 0.00517939
latency change    = 0.0720165
throughput change = 0.0328675
DVFS epoch t=120000 total_power=0.77243 headroom=0.0275697 avg_power=0.770686 domains{0:freq=0.513642,power=0.77243} routers{0:freq=0.513642,power=0.0332479, 1:freq=0.699288,power=0.0428968, 2:freq=0.638197,power=0.0391106, 3:freq=1,power=0.0577533, 4:freq=0.603796,power=0.0385173, 5:freq=1,power=0.059127, 6:freq=0.734875,power=0.0447948, 7:freq=1,power=0.0580642, 8:freq=0.519573,power=0.0335566, 9:freq=0.747331,power=0.0454564, 10:freq=0.721234,power=0.0436283, 11:freq=1,power=0.0577816, 12:freq=0.69573,power=0.0431101, 13:freq=1,power=0.0587955, 14:freq=1,power=0.0584941, 15:freq=1,power=0.0580956}
PERF_TARGET_DIFF: epoch=12 latency=2558 target=50 latency_ok=0 budget=1 headroom=0.0275697
Class 0:
Packet latency average = 470.321
	minimum = 6
	maximum = 13592
Network latency average = 266.768
	minimum = 6
	maximum = 9187
Slowest packet = 2045870
Flit latency average = 266.716
	minimum = 6
	maximum = 9187
Slowest flit = 2756852
Fragmentation average = 0
	minimum = 0
	maximum = 0
Injected packet rate average = 0.179343
	minimum = 0.16069 (at node 63)
	maximum = 0.18383 (at node 19)
Accepted packet rate average = 0.178845
	minimum = 0.17546 (at node 36)
	maximum = 0.18198 (at node 12)
Injected flit rate average = 0.179343
	minimum = 0.16069 (at node 63)
	maximum = 0.18383 (at node 19)
Accepted flit rate average= 0.178845
	minimum = 0.17546 (at node 36)
	maximum = 0.18198 (at node 12)
Injected packet length average = 1
Accepted packet length average = 1
Total in-flight flits = 3452 (3452 measured)
Buffer busy stall rate = 6.24365
Buffer conflict stall rate = 5.05528
Buffer full stall rate = 1.58028
Buffer reserved stall rate = 2.23014
Crossbar conflict stall rate = 4.89233
Class 1:
Packet latency average = 3030.23
	minimum = 6
	maximum = 64304
Network latency average = 170.415
	minimum = 6
	maximum = 5637
Slowest packet = 1988417
Flit latency average = 170.378
	minimum = 6
	maximum = 5637
Slowest flit = 3375202
Fragmentation average = 0
	minimum = 0
	maximum = 0
Injected packet rate average = 0.353398
	minimum = 0.09871 (at node 31)
	maximum = 0.42123 (at node 49)
Accepted packet rate average = 0.352922
	minimum = 0.34877 (at node 62)
	maximum = 0.3577 (at node 53)
Injected flit rate average = 0.353398
	minimum = 0.09871 (at node 31)
	maximum = 0.42123 (at node 49)
Accepted flit rate average= 0.352922
	minimum = 0.34877 (at node 62)
	maximum = 0.3577 (at node 53)
Injected packet length average = 1
Accepted packet length average = 1
Total in-flight flits = 3637 (3637 measured)
Buffer busy stall rate = 4.4498
Buffer conflict stall rate = 5.26492
Buffer full stall rate = 1.79793
Buffer reserved stall rate = 3.8175
Crossbar conflict stall rate = 10.4595
latency change    = 0.0838794
throughput change = 0.00494997
latency change    = 0.117932
throughput change = 0.006366
DVFS epoch t=130000 total_power=0.939423 headroom=-0.139423 avg_power=0.783666 domains{0:freq=1,power=0.939423} routers{0:freq=1,power=0.0621734, 1:freq=0.723926,power=0.047217, 2:freq=1,power=0.0611682, 3:freq=1,power=0.0605208, 4:freq=1,power=0.0616376, 5:freq=0.684663,power=0.044714, 6:freq=1,power=0.0607044, 7:freq=1,power=0.0601301, 8:freq=1,power=0.062778, 9:freq=1,power=0.062598, 10:freq=1,power=0.0625264, 11:freq=1,power=0.0617844, 12:freq=1,power=0.0620467, 13:freq=0.732515,power=0.0476204, 14:freq=1,power=0.0613426, 15:freq=1,power=0.0604613}
PERF_TARGET_DIFF: epoch=13 latency=2218 target=50 latency_ok=0 budget=0.738581 headroom=-0.139423
Class 0:
Packet latency average = 494.279
	minimum = 6
	maximum = 15670
Network latency average = 277.324
	minimum = 6
	maximum = 9187
Slowest packet = 2045870
Flit latency average = 277.274
	minimum = 6
	maximum = 9187
Slowest flit = 2756852
Fragmentation average = 0
	minimum = 0
	maximum = 0
Injected packet rate average = 0.178718
	minimum = 0.156909 (at node 63)
	maximum = 0.183791 (at node 19)
Accepted packet rate average = 0.178028
	minimum = 0.174691 (at node 36)
	maximum = 0.181055 (at node 12)
Injected flit rate average = 0.178718
	minimum = 0.156909 (at node 63)
	maximum = 0.183791 (at node 19)
Accepted flit rate average= 0.178028
	minimum = 0.174691 (at node 36)
	maximum = 0.181055 (at node 12)
Injected packet length average = 1
Accepted packet length average = 1
Total in-flight flits = 5135 (5135 measured)
Buffer busy stall rate = 6.79668
Buffer conflict stall rate = 5.27582
Buffer full stall rate = 1.72336
Buffer reserved stall rate = 2.24086
Crossbar conflict stall rate = 4.81275
Class 1:
Packet latency average = 3225.24
	minimum = 6
	maximum = 69720
Network latency average = 175.761
	minimum = 6
	maximum = 7008
Slowest packet = 1988417
Flit latency average = 175.725
	minimum = 6
	maximum = 7008
Slowest flit = 4654813
Fragmentation average = 0
	minimum = 0
	maximum = 0
Injected packet rate average = 0.345535
	minimum = 0.0897364 (at node 31)
	maximum = 0.420727 (at node 16)
Accepted packet rate average = 0.345073
	minimum = 0.3409 (at node 33)
	maximum = 0.349982 (at node 53)
Injected flit rate average = 0.345535
	minimum = 0.0897364 (at node 31)
	maximum = 0.420727 (at node 16)
Accepted flit rate average= 0.345073
	minimum = 0.3409 (at node 33)
	maximum = 0.349982 (at node 53)
Injected packet length average = 1
Accepted packet length average = 1
Total in-flight flits = 3859 (3859 measured)
Buffer busy stall rate = 4.67427
Buffer conflict stall rate = 5.34985
Buffer full stall rate = 1.9377
Buffer reserved stall rate = 3.78301
Crossbar conflict stall rate = 10.1681
latency change    = 0.0484702
throughput change = 0.00459087
latency change    = 0.0604632
throughput change = 0.0227459
DVFS epoch t=140000 total_power=0.873201 headroom=-0.0732011 avg_power=0.790061 domains{0:freq=0.5625,power=0.873201} routers{0:freq=0.5625,power=0.0376535, 1:freq=1,power=0.0615036, 2:freq=1,power=0.0611339, 3:freq=1,power=0.0607485, 4:freq=0.694602,power=0.0449723, 5:freq=1,power=0.0612492, 6:freq=1,power=0.0605619, 7:freq=1,power=0.0601931, 8:freq=0.512784,power=0.0345746, 9:freq=1,power=0.0611954, 10:freq=0.730114,power=0.0462667, 11:freq=1,power=0.06078, 12:freq=0.639915,power=0.0412879, 13:freq=1,power=0.0609833, 14:freq=1,power=0.0601852, 15:freq=1,power=0.0599118}
PERF_TARGET_DIFF: epoch=14 latency=2652 target=50 latency_ok=0 budget=0.862748 headroom=-0.0732011
Class 0:
Packet latency average = 531.06
	minimum = 6
	maximum = 16288
Network latency average = 282.872
	minimum = 6
	maximum = 9784
Slowest packet = 2045870
Flit latency average = 282.825
	minimum = 6
	maximum = 9784
Slowest flit = 4594400
Fragmentation average = 0
	minimum = 0
	maximum = 0
Injected packet rate average = 0.179496
	minimum = 0.163467 (at node 63)
	maximum = 0.1833 (at node 19)
Accepted packet rate average = 0.17903
	minimum = 0.176158 (at node 43)
	maximum = 0.181567 (at node 12)
Injected flit rate average = 0.179496
	minimum = 0.163467 (at node 63)
	maximum = 0.1833 (at node 19)
Accepted flit rate average= 0.17903
	minimum = 0.176158 (at node 43)
	maximum = 0.181567 (at node 12)
Injected packet length average = 1
Accepted packet length average = 1
Total in-flight flits = 3839 (3839 measured)
Buffer busy stall rate = 6.97738
Buffer conflict stall rate = 5.46901
Buffer full stall rate = 1.75046
Buffer reserved stall rate = 2.29945
Crossbar conflict stall rate = 4.87468
Class 1:
Packet latency average = 3747.09
	minimum = 6
	maximum = 80152
Network latency average = 179.05
	minimum = 6
	maximum = 8006
Slowest packet = 1988417
Flit latency average = 179.016
	minimum = 6
	maximum = 8006
Slowest flit = 4648902
Fragmentation average = 0
	minimum = 0
	maximum = 0
Injected packet rate average = 0.34497
	minimum = 0.0822583 (at node 31)
	maximum = 0.42115 (at node 20)
Accepted packet rate average = 0.344541
	minimum = 0.340758 (at node 42)
	maximum = 0.348967 (at node 24)
Injected flit rate average = 0.34497
	minimum = 0.0822583 (at node 31)
	maximum = 0.42115 (at node 20)
Accepted flit rate average= 0.344541
	minimum = 0.340758 (at node 42)
	maximum = 0.348967 (at node 24)
Injected packet length average = 1
Accepted packet length average = 1
Total in-flight flits = 3893 (3893 measured)
Buffer busy stall rate = 4.83293
Buffer conflict stall rate = 5.54279
Buffer full stall rate = 1.9802
Buffer reserved stall rate = 3.86356
Crossbar conflict stall rate = 10.2291
latency change    = 0.0692607
throughput change = 0.00559967
latency change    = 0.13927
throughput change = 0.00154479
Draining all recorded packets ...
DVFS epoch t=150000 total_power=0.936176 headroom=-0.136176 avg_power=0.799802 domains{0:freq=1,power=0.936176} routers{0:freq=1,power=0.0639786, 1:freq=0.647092,power=0.0441543, 2:freq=1,power=0.0633476, 3:freq=1,power=0.0627667, 4:freq=1,power=0.0641717, 5:freq=0.710376,power=0.0480604, 6:freq=1,power=0.0636039, 7:freq=1,power=0.063043, 8:freq=1,power=0.0642051, 9:freq=1,power=0.0634383, 10:freq=1,power=0.0629955, 11:freq=0.738883,power=0.0494407, 12:freq=1,power=0.0634148, 13:freq=0.741733,power=0.0491138, 14:freq=1,power=0.0627987, 15:freq=0.737742,power=0.0476427}
PERF_TARGET_DIFF: epoch=15 latency=2238 target=50 latency_ok=0 budget=0.74467 headroom=-0.136176
Class 0:
Remaining flits: 5097407 5121910 5121983 5127932 5135941 5136231 5136446 5137118 5137147 5137195 [...] (3391 flits)
Measured flits: 5097407 5121910 5121983 5127932 5135941 5136231 5136446 5137118 5137147 5137195 [...] (1089 flits)
Class 1:
Remaining flits: 3021055 3375683 4014790 4627915 4949368 4992879 5021854 5025194 5039643 5132787 [...] (4763 flits)
Measured flits: 3021055 3375683 4014790 4627915 4949368 4992879 5021854 5025194 5039643 5132787 [...] (3432 flits)
Class 0:
Remaining flits: 5145601 5162727 5165352 5165771 5166362 5168628 5169403 5177190 5180354 5181707 [...] (3075 flits)
Measured flits: 5145601 5162727 5165352 5165771 5166362 5168628 5169403 5177190 5180354 5181707 [...] (515 flits)
Class 1:
Remaining flits: 3021055 3375683 4014790 4627915 4949368 5165485 5176547 5183003 5199185 5200393 [...] (5083 flits)
Measured flits: 3021055 3375683 4014790 4627915 4949368 5165485 5176547 5183003 5199185 5200393 [...] (3429 flits)
Class 0:
Remaining flits: 5206861 5210807 5211106 5212058 5213047 5213120 5226336 5228551 5228635 5229643 [...] (3235 flits)
Measured flits: 5206861 5226336 5229643 5229807 5229849 5230204 5230371 5231015 5231373 5233603 [...] (474 flits)
Class 1:
Remaining flits: 3021055 3375683 4014790 4627915 4949368 5211021 5211276 5211401 5211480 5211894 [...] (5018 flits)
Measured flits: 3021055 3375683 4014790 4627915 4949368 5211021 5211276 5211401 5211480 5211894 [...] (3346 flits)
Class 0:
Remaining flits: 5212058 5229807 5237613 5238285 5238980 5239060 5239430 5241478 5243992 5246906 [...] (4166 flits)
Measured flits: 5229807 5237613 5238285 5238980 5239060 5239430 5243992 5247511 5250261 5250527 [...] (305 flits)
Class 1:
Remaining flits: 3021055 3375683 4014790 4627915 5211021 5244941 5246866 5247555 5250068 5250748 [...] (4515 flits)
Measured flits: 3021055 3375683 4014790 4627915 5211021 5244941 5246866 5247555 5250068 5250748 [...] (2078 flits)
Class 0:
Remaining flits: 5246906 5257748 5261670 5261774 5263065 5263135 5267351 5268322 5269019 5269755 [...] (4482 flits)
Measured flits: 5257748 5261774 5263065 5263135 5268322 5269019 5272113 5272760 5272860 5272911 [...] (185 flits)
Class 1:
Remaining flits: 3021055 3375683 4014790 4627915 5261350 5268273 5268626 5268925 5272223 5272781 [...] (4075 flits)
Measured flits: 3021055 3375683 4014790 4627915 5261350 5268273 5268626 5268925 5272223 5272781 [...] (1689 flits)
Class 0:
Remaining flits: 5257748 5261774 5263065 5273915 5274673 5275175 5276581 5278264 5279350 5282307 [...] (5020 flits)
Measured flits: 5257748 5261774 5263065 5273915 5284196 5284797 5284835 5289248 5289317 5289426 [...] (149 flits)
Class 1:
Remaining flits: 3021055 3375683 4014790 4627915 5268626 5273180 5274106 5274830 5274867 5275053 [...] (3518 flits)
Measured flits: 3021055 3375683 4014790 4627915 5268626 5273180 5274106 5274830 5274867 5275053 [...] (1280 flits)
Class 0:
Remaining flits: 5283796 5284797 5289317 5289585 5289652 5289843 5294520 5295166 5295199 5295360 [...] (4730 flits)
Measured flits: 5284797 5289317 5289585 5289652 5289843 5295360 5295693 5295764 5295797 5295972 [...] (154 flits)
Class 1:
Remaining flits: 3021055 3375683 4014790 4627915 5273180 5274867 5275976 5282275 5289161 5290529 [...] (3962 flits)
Measured flits: 3021055 3375683 4014790 4627915 5273180 5274867 5275976 5282275 5289161 5290529 [...] (1479 flits)
Class 0:
Remaining flits: 5289585 5289652 5289843 5295360 5295797 5296094 5296264 5298675 5299400 5299518 [...] (4636 flits)
Measured flits: 5289585 5289652 5289843 5295360 5295797 5296094 5296264 5299400 5299518 5299600 [...] (137 flits)
Class 1:
Remaining flits: 3021055 3375683 4014790 4627915 5273180 5275976 5289161 5294545 5298426 5298620 [...] (4155 flits)
Measured flits: 3021055 3375683 4014790 4627915 5273180 5275976 5289161 5294545 5298426 5298620 [...] (1219 flits)
Class 0:
Remaining flits: 5296094 5300327 5300385 5300467 5300520 5300695 5300730 5300763 5300975 5301035 [...] (4554 flits)
Measured flits: 5296094 5300327 5300385 5300467 5300520 5300695 5300730 5300763 5300975 5301035 [...] (141 flits)
Class 1:
Remaining flits: 3021055 3375683 4014790 4627915 5273180 5275976 5289161 5294545 5298964 5299309 [...] (4120 flits)
Measured flits: 3021055 3375683 4014790 4627915 5273180 5275976 5289161 5294545 5298964 5299309 [...] (1351 flits)
Class 0:
Remaining flits: 5300327 5300385 5300467 5300520 5300695 5300730 5300763 5300975 5301035 5301188 [...] (4581 flits)
Measured flits: 5300327 5300385 5300467 5300520 5300695 5300730 5300763 5300975 5301035 5301188 [...] (137 flits)
Class 1:
Remaining flits: 3021055 3375683 4014790 4627915 5273180 5275976 5289161 5294545 5299309 5306006 [...] (3983 flits)
Measured flits: 3021055 3375683 4014790 4627915 5273180 5275976 5289161 5294545 5299309 5306006 [...] (1196 flits)
DVFS epoch t=160000 total_power=0.954856 headroom=-0.154856 avg_power=0.809493 domains{0:freq=0.652677,power=0.954856} routers{0:freq=0.652677,power=0.0448844, 1:freq=1,power=0.0647823, 2:freq=1,power=0.0643285, 3:freq=1,power=0.0638307, 4:freq=0.571635,power=0.0395032, 5:freq=1,power=0.0636494, 6:freq=1,power=0.0631688, 7:freq=1,power=0.0628298, 8:freq=0.623734,power=0.0428768, 9:freq=1,power=0.0640772, 10:freq=1,power=0.063491, 11:freq=1,power=0.0632943, 12:freq=1,power=0.0641179, 13:freq=1,power=0.0643454, 14:freq=1,power=0.0630696, 15:freq=1,power=0.0626068}
PERF_TARGET_DIFF: epoch=16 latency=3465 target=50 latency_ok=0 budget=0.709645 headroom=-0.154856
Class 0:
Remaining flits: 5300385 5300730 5330687 5330860 5359485 5359637 5359693 5376987 5377117 5377196 [...] (3468 flits)
Measured flits: 5300385 5300730 5330687 5330860 5359485 5359637 5359693 5397391 5397479 5419474 [...] (158 flits)
Class 1:
Remaining flits: 3021055 3375683 4014790 4627915 5273180 5275976 5289161 5299309 5468661 5468901 [...] (5615 flits)
Measured flits: 3021055 3375683 4014790 4627915 5273180 5275976 5289161 5299309 5488832 5489368 [...] (2332 flits)
Class 0:
Remaining flits: 5507393 5507990 5511694 5512076 5513969 5515713 5516344 5516420 5516948 5517565 [...] (3118 flits)
Measured flits: 5538370 5538632 5540896 5541048 5543796 5544678 5545487 (7 flits)
Class 1:
Remaining flits: 3021055 3375683 4014790 5275976 5299309 5514810 5516060 5517179 5521545 5522109 [...] (5884 flits)
Measured flits: 3021055 3375683 4014790 5275976 5299309 5514810 5517179 5521545 5522109 5523014 [...] (2788 flits)
Class 0:
Remaining flits: 5535248 5535605 5536579 5536955 5540098 5540533 5540570 5540743 5541355 5541380 [...] (3337 flits)
Measured flits: (0 flits)
Class 1:
Remaining flits: 3021055 3375683 4014790 5275976 5299309 5542025 5544224 5545672 5546099 5551888 [...] (4761 flits)
Measured flits: 3021055 3375683 4014790 5275976 5299309 5542025 5544224 5545672 5546099 5551888 [...] (2190 flits)
Class 0:
Remaining flits: 5547107 5547836 5548040 5550172 5551721 5561996 5562197 5564189 5566248 5566469 [...] (3474 flits)
Measured flits: (0 flits)
Class 1:
Remaining flits: 3021055 3375683 4014790 5275976 5299309 5553035 5558518 5563371 5565285 5565788 [...] (4649 flits)
Measured flits: 3021055 3375683 4014790 5275976 5299309 5553035 5558518 5563371 5565285 5565788 [...] (1949 flits)
Class 0:
Remaining flits: 5547836 5575541 5575920 5576761 5576824 5576892 5578020 5579383 5579450 5579548 [...] (4118 flits)
Measured flits: (0 flits)
Class 1:
Remaining flits: 3021055 3375683 4014790 5275976 5299309 5566210 5567036 5567104 5567422 5568203 [...] (4058 flits)
Measured flits: 3021055 3375683 4014790 5275976 5299309 5566210 5567036 5567104 5567422 5568203 [...] (1185 flits)
Class 0:
Remaining flits: 5576824 5578020 5579450 5579548 5603961 5604167 5604916 5609824 5609992 5610057 [...] (4132 flits)
Measured flits: (0 flits)
Class 1:
Remaining flits: 3021055 3375683 4014790 5275976 5299309 5588494 5608436 5613000 5613439 5613995 [...] (3937 flits)
Measured flits: 3021055 3375683 4014790 5275976 5299309 5588494 5608436 5613000 5613439 5613995 [...] (1054 flits)
Class 0:
Remaining flits: 5579450 5603961 5604167 5609824 5609992 5610057 5610202 5613702 5614277 5614583 [...] (4280 flits)
Measured flits: (0 flits)
Class 1:
Remaining flits: 3021055 3375683 4014790 5275976 5299309 5613000 5613439 5613995 5614658 5615055 [...] (3848 flits)
Measured flits: 3021055 3375683 4014790 5275976 5299309 5613000 5613439 5613995 5614658 5615055 [...] (958 flits)
Class 0:
Remaining flits: 5613702 5621131 5626074 5632978 5636073 5636388 5636587 5636654 5636711 5642756 [...] (4522 flits)
Measured flits: (0 flits)
Class 1:
Remaining flits: 3021055 3375683 4014790 5275976 5299309 5635860 5644698 5645461 5652530 5654644 [...] (3764 flits)
Measured flits: 3021055 3375683 4014790 5275976 5299309 5635860 5644698 5645461 5652530 5654644 [...] (760 flits)
Class 0:
Remaining flits: 5642826 5643783 5645590 5655249 5659083 5659133 5659189 5659200 5659231 5659294 [...] (4342 flits)
Measured flits: (0 flits)
Class 1:
Remaining flits: 3021055 3375683 4014790 5275976 5299309 5635860 5644698 5655926 5669845 5692598 [...] (3943 flits)
Measured flits: 3021055 3375683 4014790 5275976 5299309 5635860 5644698 5655926 5669845 5692598 [...] (839 flits)
Class 0:
Remaining flits: 5655249 5659133 5659189 5659231 5659294 5659311 5659359 5664034 5665620 5665671 [...] (4528 flits)
Measured flits: (0 flits)
Class 1:
Remaining flits: 3021055 3375683 4014790 5275976 5299309 5635860 5644698 5655926 5669845 5712917 [...] (3890 flits)
Measured flits: 3021055 3375683 4014790 5275976 5299309 5635860 5644698 5655926 5669845 5712917 [...] (858 flits)
DVFS epoch t=170000 total_power=0.916579 headroom=-0.116579 avg_power=0.815792 domains{0:freq=1,power=0.916579} routers{0:freq=1,power=0.0657765, 1:freq=0.610996,power=0.0430879, 2:freq=0.67168,power=0.0462549, 3:freq=1,power=0.0647503, 4:freq=1,power=0.0663765, 5:freq=0.738589,power=0.051009, 6:freq=1,power=0.0653664, 7:freq=0.73444,power=0.0493319, 8:freq=1,power=0.0657424, 9:freq=0.651971,power=0.0454948, 10:freq=0.733921,power=0.0497114, 11:freq=1,power=0.064488, 12:freq=1,power=0.0655441, 13:freq=0.628631,power=0.0440466, 14:freq=1,power=0.0649965, 15:freq=1,power=0.0646021}
PERF_TARGET_DIFF: epoch=17 latency=7397 target=50 latency_ok=0 budget=0.781414 headroom=-0.116579
Class 0:
Remaining flits: 5659294 5664034 5676599 5676649 5676701 5676751 5676811 5699175 5699231 5702391 [...] (3289 flits)
Measured flits: (0 flits)
Class 1:
Remaining flits: 3021055 3375683 4014790 5275976 5299309 5635860 5644698 5655926 5713643 5768411 [...] (4518 flits)
Measured flits: 3021055 3375683 4014790 5275976 5299309 5635860 5644698 5655926 5713643 5768411 [...] (1651 flits)
Class 0:
Remaining flits: 5664034 5676599 5676649 5676701 5676751 5676811 5699175 5699231 5703973 5704035 [...] (3185 flits)
Measured flits: (0 flits)
Class 1:
Remaining flits: 3021055 3375683 4014790 5275976 5299309 5635860 5644698 5655926 5806364 5807996 [...] (4230 flits)
Measured flits: 3021055 3375683 4014790 5275976 5299309 5635860 5644698 5655926 5806364 5807996 [...] (1445 flits)
Class 0:
Remaining flits: 5664034 5676599 5676649 5676701 5676751 5676811 5699175 5699231 5703973 5704035 [...] (3159 flits)
Measured flits: (0 flits)
Class 1:
Remaining flits: 3021055 3375683 4014790 5275976 5299309 5635860 5655926 5836674 5836826 5838879 [...] (4371 flits)
Measured flits: 3021055 3375683 4014790 5275976 5299309 5635860 5655926 5836674 5836826 5838879 [...] (1762 flits)
Average latency for class 1 exceeded 5000 cycles. Aborting simulation.
Simulation unstable, ending ...
Total run time 205.717
1.85573e-13
1.01182e-14
8.2655e-14
1.09233e-13
1.89983e-13
5.84568e-13
3.37458e-13
1.11201e-12
8.52002e-14
1.49959e-12
4.63932e-14
1.01182e-14
2.06637e-14
1.56046e-14
1.89983e-13
8.35097e-14
8.43644e-14
3.57857e-13
2.13e-14
4.50637e-13
2.31966e-14
1.01182e-14
3.3062e-13
4.83744e-13
1.89983e-13
2.5888e-12
1.34983e-12
4.12861e-12
3.40801e-13
4.97629e-12
2.8975e-11
4.62959e-11
1.85573e-13
1.01182e-14
8.2655e-14
1.09233e-13
1.89983e-13
5.84568e-13
3.37458e-13
1.11201e-12
8.52002e-14
1.49959e-12
4.63932e-14
1.01182e-14
2.06637e-14
1.56046e-14
1.89983e-13
8.35097e-14
8.43644e-14
3.57857e-13
2.13e-14
4.50637e-13
2.31966e-14
1.01182e-14
3.3062e-13
4.83744e-13
1.89983e-13
2.5888e-12
1.34983e-12
4.12861e-12
3.40801e-13
4.97629e-12
2.8975e-11
4.63185e-11
1.85573e-13
1.01182e-14
8.2655e-14
1.09233e-13
1.89983e-13
5.84568e-13
3.37458e-13
1.11201e-12
8.52002e-14
1.49959e-12
4.63932e-14
1.01182e-14
2.06637e-14
1.56046e-14
1.89983e-13
8.35097e-14
8.43644e-14
3.57857e-13
2.13e-14
4.50637e-13
2.31966e-14
1.01182e-14
3.3062e-13
4.83744e-13
1.89983e-13
2.5888e-12
1.34983e-12
4.12861e-12
3.40801e-13
4.97629e-12
2.8975e-11
4.63135e-11
1.85573e-13
1.01182e-14
8.2655e-14
1.09233e-13
1.89983e-13
5.84568e-13
3.37458e-13
1.11201e-12
8.52002e-14
1.49959e-12
4.63932e-14
1.01182e-14
2.06637e-14
1.56046e-14
1.89983e-13
8.35097e-14
8.43644e-14
3.57857e-13
2.13e-14
4.50637e-13
2.31966e-14
1.01182e-14
3.3062e-13
4.83744e-13
1.89983e-13
2.5888e-12
1.34983e-12
4.12861e-12
3.40801e-13
4.97629e-12
2.8975e-11
4.62818e-11
1.85573e-13
1.01182e-14
8.2655e-14
1.09233e-13
1.89983e-13
5.84568e-13
3.37458e-13
1.11201e-12
8.52002e-14
1.49959e-12
4.63932e-14
1.01182e-14
2.06637e-14
1.56046e-14
1.89983e-13
8.35097e-14
8.43644e-14
3.57857e-13
2.13e-14
4.50637e-13
2.31966e-14
1.01182e-14
3.3062e-13
4.83744e-13
1.89983e-13
2.5888e-12
1.34983e-12
4.12861e-12
3.40801e-13
4.97629e-12
2.8975e-11
4.62462e-11
1.85573e-13
1.01182e-14
8.2655e-14
1.09233e-13
1.89983e-13
5.84568e-13
3.37458e-13
1.11201e-12
8.52002e-14
1.49959e-12
4.63932e-14
1.01182e-14
2.06637e-14
1.56046e-14
1.89983e-13
8.35097e-14
8.43644e-14
3.57857e-13
2.13e-14
4.50637e-13
2.31966e-14
1.01182e-14
3.3062e-13
4.83744e-13
1.89983e-13
2.5888e-12
1.34983e-12
4.12861e-12
3.40801e-13
4.97629e-12
2.8975e-11
4.62771e-11
1.85573e-13
1.01182e-14
8.2655e-14
1.09233e-13
1.89983e-13
5.84568e-13
3.37458e-13
1.11201e-12
8.52002e-14
1.49959e-12
4.63932e-14
1.01182e-14
2.06637e-14
1.56046e-14
1.89983e-13
8.35097e-14
8.43644e-14
3.57857e-13
2.13e-14
4.50637e-13
2.31966e-14
1.01182e-14
3.3062e-13
4.83744e-13
1.89983e-13
2.5888e-12
1.34983e-12
4.12861e-12
3.40801e-13
4.97629e-12
2.8975e-11
4.6301e-11
1.85573e-13
1.01182e-14
8.2655e-14
1.09233e-13
1.89983e-13
5.84568e-13
3.37458e-13
1.11201e-12
8.52002e-14
1.49959e-12
4.63932e-14
1.01182e-14
2.06637e-14
1.56046e-14
1.89983e-13
8.35097e-14
8.43644e-14
3.57857e-13
2.13e-14
4.50637e-13
2.31966e-14
1.01182e-14
3.3062e-13
4.83744e-13
1.89983e-13
2.5888e-12
1.34983e-12
4.12861e-12
3.40801e-13
4.97629e-12
2.8975e-11
4.62667e-11
1.85573e-13
1.01182e-14
8.2655e-14
1.09233e-13
1.89983e-13
5.84568e-13
3.37458e-13
1.11201e-12
8.52002e-14
1.49959e-12
4.63932e-14
1.01182e-14
2.06637e-14
1.56046e-14
1.89983e-13
8.35097e-14
8.43644e-14
3.57857e-13
2.13e-14
4.50637e-13
2.31966e-14
1.01182e-14
3.3062e-13
4.83744e-13
1.89983e-13
2.5888e-12
1.34983e-12
4.12861e-12
3.40801e-13
4.97629e-12
2.8975e-11
4.62568e-11
1.85573e-13
1.01182e-14
8.2655e-14
1.09233e-13
1.89983e-13
5.84568e-13
3.37458e-13
1.11201e-12
8.52002e-14
1.49959e-12
4.63932e-14
1.01182e-14
2.06637e-14
1.56046e-14
1.89983e-13
8.35097e-14
8.43644e-14
3.57857e-13
2.13e-14
4.50637e-13
2.31966e-14
1.01182e-14
3.3062e-13
4.83744e-13
1.89983e-13
2.5888e-12
1.34983e-12
4.12861e-12
3.40801e-13
4.97629e-12
2.8975e-11
4.62806e-11
1.85573e-13
1.01182e-14
8.2655e-14
1.09233e-13
1.89983e-13
5.84568e-13
3.37458e-13
1.11201e-12
8.52002e-14
1.49959e-12
4.63932e-14
1.01182e-14
2.06637e-14
1.56046e-14
1.89983e-13
8.35097e-14
8.43644e-14
3.57857e-13
2.13e-14
4.50637e-13
2.31966e-14
1.01182e-14
3.3062e-13
4.83744e-13
1.89983e-13
2.5888e-12
1.34983e-12
4.12861e-12
3.40801e-13
4.97629e-12
2.8975e-11
4.62962e-11
1.85573e-13
1.01182e-14
8.2655e-14
1.09233e-13
1.89983e-13
5.84568e-13
3.37458e-13
1.11201e-12
8.52002e-14
1.49959e-12
4.63932e-14
1.01182e-14
2.06637e-14
1.56046e-14
1.89983e-13
8.35097e-14
8.43644e-14
3.57857e-13
2.13e-14
4.50637e-13
2.31966e-14
1.01182e-14
3.3062e-13
4.83744e-13
1.89983e-13
2.5888e-12
1.34983e-12
4.12861e-12
3.40801e-13
4.97629e-12
2.8975e-11
4.62965e-11
1.85573e-13
1.01182e-14
8.2655e-14
1.09233e-13
1.89983e-13
5.84568e-13
3.37458e-13
1.11201e-12
8.52002e-14
1.49959e-12
4.63932e-14
1.01182e-14
2.06637e-14
1.56046e-14
1.89983e-13
8.35097e-14
8.43644e-14
3.57857e-13
2.13e-14
4.50637e-13
2.31966e-14
1.01182e-14
3.3062e-13
4.83744e-13
1.89983e-13
2.5888e-12
1.34983e-12
4.12861e-12
3.40801e-13
4.97629e-12
2.8975e-11
4.63183e-11
1.85573e-13
1.01182e-14
8.2655e-14
1.09233e-13
1.89983e-13
5.84568e-13
3.37458e-13
1.11201e-12
8.52002e-14
1.49959e-12
4.63932e-14
1.01182e-14
2.06637e-14
1.56046e-14
1.89983e-13
8.35097e-14
8.43644e-14
3.57857e-13
2.13e-14
4.50637e-13
2.31966e-14
1.01182e-14
3.3062e-13
4.83744e-13
1.89983e-13
2.5888e-12
1.34983e-12
4.12861e-12
3.40801e-13
4.97629e-12
2.8975e-11
4.62977e-11
1.85573e-13
1.01182e-14
8.2655e-14
1.09233e-13
1.89983e-13
5.84568e-13
3.37458e-13
1.11201e-12
8.52002e-14
1.49959e-12
4.63932e-14
1.01182e-14
2.06637e-14
1.56046e-14
1.89983e-13
8.35097e-14
8.43644e-14
3.57857e-13
2.13e-14
4.50637e-13
2.31966e-14
1.01182e-14
3.3062e-13
4.83744e-13
1.89983e-13
2.5888e-12
1.34983e-12
4.12861e-12
3.40801e-13
4.97629e-12
2.8975e-11
4.63066e-11
1.85573e-13
1.01182e-14
8.2655e-14
1.09233e-13
1.89983e-13
5.84568e-13
3.37458e-13
1.11201e-12
8.52002e-14
1.49959e-12
4.63932e-14
1.01182e-14
2.06637e-14
1.56046e-14
1.89983e-13
8.35097e-14
8.43644e-14
3.57857e-13
2.13e-14
4.50637e-13
2.31966e-14
1.01182e-14
3.3062e-13
4.83744e-13
1.89983e-13
2.5888e-12
1.34983e-12
4.12861e-12
3.40801e-13
4.97629e-12
2.8975e-11
4.63072e-11
1.85573e-13
1.01182e-14
8.2655e-14
1.09233e-13
1.89983e-13
5.84568e-13
3.37458e-13
1.11201e-12
8.52002e-14
1.49959e-12
4.63932e-14
1.01182e-14
2.06637e-14
1.56046e-14
1.89983e-13
8.35097e-14
8.43644e-14
3.57857e-13
2.13e-14
4.50637e-13
2.31966e-14
1.01182e-14
3.3062e-13
4.83744e-13
1.89983e-13
2.5888e-12
1.34983e-12
4.12861e-12
3.40801e-13
4.97629e-12
3.01535e-11
4.82565e-11
1.85573e-13
1.01182e-14
8.2655e-14
1.09233e-13
1.89983e-13
5.84568e-13
3.37458e-13
1.11201e-12
8.52002e-14
1.49959e-12
4.63932e-14
1.01182e-14
2.06637e-14
1.56046e-14
1.89983e-13
8.35097e-14
8.43644e-14
3.57857e-13
2.13e-14
4.50637e-13
2.31966e-14
1.01182e-14
3.3062e-13
4.83744e-13
1.89983e-13
2.5888e-12
1.34983e-12
4.12861e-12
3.40801e-13
4.97629e-12
3.01535e-11
4.74693e-11
1.85573e-13
1.01182e-14
8.2655e-14
1.09233e-13
1.89983e-13
5.84568e-13
3.37458e-13
1.11201e-12
8.52002e-14
1.49959e-12
4.63932e-14
1.01182e-14
2.06637e-14
1.56046e-14
1.89983e-13
8.35097e-14
8.43644e-14
3.57857e-13
2.13e-14
4.50637e-13
2.31966e-14
1.01182e-14
3.3062e-13
4.83744e-13
1.89983e-13
2.5888e-12
1.34983e-12
4.12861e-12
3.40801e-13
4.97629e-12
3.01535e-11
4.74702e-11
1.85573e-13
1.01182e-14
8.2655e-14
1.09233e-13
1.89983e-13
5.84568e-13
3.37458e-13
1.11201e-12
8.52002e-14
1.49959e-12
4.63932e-14
1.01182e-14
2.06637e-14
1.56046e-14
1.89983e-13
8.35097e-14
8.43644e-14
3.57857e-13
2.13e-14
4.50637e-13
2.31966e-14
1.01182e-14
3.3062e-13
4.83744e-13
1.89983e-13
2.5888e-12
1.34983e-12
4.12861e-12
3.40801e-13
4.97629e-12
3.01535e-11
4.82891e-11
1.85573e-13
1.01182e-14
8.2655e-14
1.09233e-13
1.89983e-13
5.84568e-13
3.37458e-13
1.11201e-12
8.52002e-14
1.49959e-12
4.63932e-14
1.01182e-14
2.06637e-14
1.56046e-14
1.89983e-13
8.35097e-14
8.43644e-14
3.57857e-13
2.13e-14
4.50637e-13
2.31966e-14
1.01182e-14
3.3062e-13
4.83744e-13
1.89983e-13
2.5888e-12
1.34983e-12
4.12861e-12
3.40801e-13
4.97629e-12
3.01535e-11
4.74692e-11
1.85573e-13
1.01182e-14
8.2655e-14
1.09233e-13
1.89983e-13
5.84568e-13
3.37458e-13
1.11201e-12
8.52002e-14
1.49959e-12
4.63932e-14
1.01182e-14
2.06637e-14
1.56046e-14
1.89983e-13
8.35097e-14
8.43644e-14
3.57857e-13
2.13e-14
4.50637e-13
2.31966e-14
1.01182e-14
3.3062e-13
4.83744e-13
1.89983e-13
2.5888e-12
1.34983e-12
4.12861e-12
3.40801e-13
4.97629e-12
3.01535e-11
4.82777e-11
1.85573e-13
1.01182e-14
8.2655e-14
1.09233e-13
1.89983e-13
5.84568e-13
3.37458e-13
1.11201e-12
8.52002e-14
1.49959e-12
4.63932e-14
1.01182e-14
2.06637e-14
1.56046e-14
1.89983e-13
8.35097e-14
8.43644e-14
3.57857e-13
2.13e-14
4.50637e-13
2.31966e-14
1.01182e-14
3.3062e-13
4.83744e-13
1.89983e-13
2.5888e-12
1.34983e-12
4.12861e-12
3.40801e-13
4.97629e-12
3.01535e-11
4.82702e-11
1.85573e-13
1.01182e-14
8.2655e-14
1.09233e-13
1.89983e-13
5.84568e-13
3.37458e-13
1.11201e-12
8.52002e-14
1.49959e-12
4.63932e-14
1.01182e-14
2.06637e-14
1.56046e-14
1.89983e-13
8.35097e-14
8.43644e-14
3.57857e-13
2.13e-14
4.50637e-13
2.31966e-14
1.01182e-14
3.3062e-13
4.83744e-13
1.89983e-13
2.5888e-12
1.34983e-12
4.12861e-12
3.40801e-13
4.97629e-12
3.01535e-11
4.82907e-11
1.85573e-13
1.01182e-14
8.2655e-14
1.09233e-13
1.89983e-13
5.84568e-13
3.37458e-13
1.11201e-12
8.52002e-14
1.49959e-12
4.63932e-14
1.01182e-14
2.06637e-14
1.56046e-14
1.89983e-13
8.35097e-14
8.43644e-14
3.57857e-13
2.13e-14
4.50637e-13
2.31966e-14
1.01182e-14
3.3062e-13
4.83744e-13
1.89983e-13
2.5888e-12
1.34983e-12
4.12861e-12
3.40801e-13
4.97629e-12
3.01535e-11
4.74411e-11
1.85573e-13
1.01182e-14
8.2655e-14
1.09233e-13
1.89983e-13
5.84568e-13
3.37458e-13
1.11201e-12
8.52002e-14
1.49959e-12
4.63932e-14
1.01182e-14
2.06637e-14
1.56046e-14
1.89983e-13
8.35097e-14
8.43644e-14
3.57857e-13
2.13e-14
4.50637e-13
2.31966e-14
1.01182e-14
3.3062e-13
4.83744e-13
1.89983e-13
2.5888e-12
1.34983e-12
4.12861e-12
3.40801e-13
4.97629e-12
3.01535e-11
4.74369e-11
1.85573e-13
1.01182e-14
8.2655e-14
1.09233e-13
1.89983e-13
5.84568e-13
3.37458e-13
1.11201e-12
8.52002e-14
1.49959e-12
4.63932e-14
1.01182e-14
2.06637e-14
1.56046e-14
1.89983e-13
8.35097e-14
8.43644e-14
3.57857e-13
2.13e-14
4.50637e-13
2.31966e-14
1.01182e-14
3.3062e-13
4.83744e-13
1.89983e-13
2.5888e-12
1.34983e-12
4.12861e-12
3.40801e-13
4.97629e-12
3.01535e-11
4.832e-11
1.85573e-13
1.01182e-14
8.2655e-14
1.09233e-13
1.89983e-13
5.84568e-13
3.37458e-13
1.11201e-12
8.52002e-14
1.49959e-12
4.63932e-14
1.01182e-14
2.06637e-14
1.56046e-14
1.89983e-13
8.35097e-14
8.43644e-14
3.57857e-13
2.13e-14
4.50637e-13
2.31966e-14
1.01182e-14
3.3062e-13
4.83744e-13
1.89983e-13
2.5888e-12
1.34983e-12
4.12861e-12
3.40801e-13
4.97629e-12
3.01535e-11
4.74635e-11
1.85573e-13
1.01182e-14
8.2655e-14
1.09233e-13
1.89983e-13
5.84568e-13
3.37458e-13
1.11201e-12
8.52002e-14
1.49959e-12
4.63932e-14
1.01182e-14
2.06637e-14
1.56046e-14
1.89983e-13
8.35097e-14
8.43644e-14
3.57857e-13
2.13e-14
4.50637e-13
2.31966e-14
1.01182e-14
3.3062e-13
4.83744e-13
1.89983e-13
2.5888e-12
1.34983e-12
4.12861e-12
3.40801e-13
4.97629e-12
3.01535e-11
4.7474e-11
1.85573e-13
1.01182e-14
8.2655e-14
1.09233e-13
1.89983e-13
5.84568e-13
3.37458e-13
1.11201e-12
8.52002e-14
1.49959e-12
4.63932e-14
1.01182e-14
2.06637e-14
1.56046e-14
1.89983e-13
8.35097e-14
8.43644e-14
3.57857e-13
2.13e-14
4.50637e-13
2.31966e-14
1.01182e-14
3.3062e-13
4.83744e-13
1.89983e-13
2.5888e-12
1.34983e-12
4.12861e-12
3.40801e-13
4.97629e-12
3.01535e-11
4.74835e-11
1.85573e-13
1.01182e-14
8.2655e-14
1.09233e-13
1.89983e-13
5.84568e-13
3.37458e-13
1.11201e-12
8.52002e-14
1.49959e-12
4.63932e-14
1.01182e-14
2.06637e-14
1.56046e-14
1.89983e-13
8.35097e-14
8.43644e-14
3.57857e-13
2.13e-14
4.50637e-13
2.31966e-14
1.01182e-14
3.3062e-13
4.83744e-13
1.89983e-13
2.5888e-12
1.34983e-12
4.12861e-12
3.40801e-13
4.97629e-12
3.01535e-11
4.74783e-11
1.85573e-13
1.01182e-14
8.2655e-14
1.09233e-13
1.89983e-13
5.84568e-13
3.37458e-13
1.11201e-12
8.52002e-14
1.49959e-12
4.63932e-14
1.01182e-14
2.06637e-14
1.56046e-14
1.89983e-13
8.35097e-14
8.43644e-14
3.57857e-13
2.13e-14
4.50637e-13
2.31966e-14
1.01182e-14
3.3062e-13
4.83744e-13
1.89983e-13
2.5888e-12
1.34983e-12
4.12861e-12
3.40801e-13
4.97629e-12
3.01535e-11
4.74604e-11
1.85573e-13
1.01182e-14
8.2655e-14
1.09233e-13
1.89983e-13
5.84568e-13
3.37458e-13
1.11201e-12
8.52002e-14
1.49959e-12
4.63932e-14
1.01182e-14
2.06637e-14
1.56046e-14
1.89983e-13
8.35097e-14
8.43644e-14
3.57857e-13
2.13e-14
4.50637e-13
2.31966e-14
1.01182e-14
3.3062e-13
4.83744e-13
1.89983e-13
2.5888e-12
1.34983e-12
4.12861e-12
3.40801e-13
4.97629e-12
3.1332e-11
4.86848e-11
1.85573e-13
1.01182e-14
8.2655e-14
1.09233e-13
1.89983e-13
5.84568e-13
3.37458e-13
1.11201e-12
8.52002e-14
1.49959e-12
4.63932e-14
1.01182e-14
2.06637e-14
1.56046e-14
1.89983e-13
8.35097e-14
8.43644e-14
3.57857e-13
2.13e-14
4.50637e-13
2.31966e-14
1.01182e-14
3.3062e-13
4.83744e-13
1.89983e-13
2.5888e-12
1.34983e-12
4.12861e-12
3.40801e-13
4.97629e-12
3.1332e-11
4.94397e-11
1.85573e-13
1.01182e-14
8.2655e-14
1.09233e-13
1.89983e-13
5.84568e-13
3.37458e-13
1.11201e-12
8.52002e-14
1.49959e-12
4.63932e-14
1.01182e-14
2.06637e-14
1.56046e-14
1.89983e-13
8.35097e-14
8.43644e-14
3.57857e-13
2.13e-14
4.50637e-13
2.31966e-14
1.01182e-14
3.3062e-13
4.83744e-13
1.89983e-13
2.5888e-12
1.34983e-12
4.12861e-12
3.40801e-13
4.97629e-12
3.1332e-11
4.94235e-11
1.85573e-13
1.01182e-14
8.2655e-14
1.09233e-13
1.89983e-13
5.84568e-13
3.37458e-13
1.11201e-12
8.52002e-14
1.49959e-12
4.63932e-14
1.01182e-14
2.06637e-14
1.56046e-14
1.89983e-13
8.35097e-14
8.43644e-14
3.57857e-13
2.13e-14
4.50637e-13
2.31966e-14
1.01182e-14
3.3062e-13
4.83744e-13
1.89983e-13
2.5888e-12
1.34983e-12
4.12861e-12
3.40801e-13
4.97629e-12
3.1332e-11
4.86356e-11
1.85573e-13
1.01182e-14
8.2655e-14
1.09233e-13
1.89983e-13
5.84568e-13
3.37458e-13
1.11201e-12
8.52002e-14
1.49959e-12
4.63932e-14
1.01182e-14
2.06637e-14
1.56046e-14
1.89983e-13
8.35097e-14
8.43644e-14
3.57857e-13
2.13e-14
4.50637e-13
2.31966e-14
1.01182e-14
3.3062e-13
4.83744e-13
1.89983e-13
2.5888e-12
1.34983e-12
4.12861e-12
3.40801e-13
4.97629e-12
3.1332e-11
4.86372e-11
1.85573e-13
1.01182e-14
8.2655e-14
1.09233e-13
1.89983e-13
5.84568e-13
3.37458e-13
1.11201e-12
8.52002e-14
1.49959e-12
4.63932e-14
1.01182e-14
2.06637e-14
1.56046e-14
1.89983e-13
8.35097e-14
8.43644e-14
3.57857e-13
2.13e-14
4.50637e-13
2.31966e-14
1.01182e-14
3.3062e-13
4.83744e-13
1.89983e-13
2.5888e-12
1.34983e-12
4.12861e-12
3.40801e-13
4.97629e-12
3.1332e-11
4.86402e-11
1.85573e-13
1.01182e-14
8.2655e-14
1.09233e-13
1.89983e-13
5.84568e-13
3.37458e-13
1.11201e-12
8.52002e-14
1.49959e-12
4.63932e-14
1.01182e-14
2.06637e-14
1.56046e-14
1.89983e-13
8.35097e-14
8.43644e-14
3.57857e-13
2.13e-14
4.50637e-13
2.31966e-14
1.01182e-14
3.3062e-13
4.83744e-13
1.89983e-13
2.5888e-12
1.34983e-12
4.12861e-12
3.40801e-13
4.97629e-12
3.1332e-11
4.86762e-11
1.85573e-13
1.01182e-14
8.2655e-14
1.09233e-13
1.89983e-13
5.84568e-13
3.37458e-13
1.11201e-12
8.52002e-14
1.49959e-12
4.63932e-14
1.01182e-14
2.06637e-14
1.56046e-14
1.89983e-13
8.35097e-14
8.43644e-14
3.57857e-13
2.13e-14
4.50637e-13
2.31966e-14
1.01182e-14
3.3062e-13
4.83744e-13
1.89983e-13
2.5888e-12
1.34983e-12
4.12861e-12
3.40801e-13
4.97629e-12
3.1332e-11
4.94831e-11
1.85573e-13
1.01182e-14
8.2655e-14
1.09233e-13
1.89983e-13
5.84568e-13
3.37458e-13
1.11201e-12
8.52002e-14
1.49959e-12
4.63932e-14
1.01182e-14
2.06637e-14
1.56046e-14
1.89983e-13
8.35097e-14
8.43644e-14
3.57857e-13
2.13e-14
4.50637e-13
2.31966e-14
1.01182e-14
3.3062e-13
4.83744e-13
1.89983e-13
2.5888e-12
1.34983e-12
4.12861e-12
3.40801e-13
4.97629e-12
3.1332e-11
4.9454e-11
1.85573e-13
1.01182e-14
8.2655e-14
1.09233e-13
1.89983e-13
5.84568e-13
3.37458e-13
1.11201e-12
8.52002e-14
1.49959e-12
4.63932e-14
1.01182e-14
2.06637e-14
1.56046e-14
1.89983e-13
8.35097e-14
8.43644e-14
3.57857e-13
2.13e-14
4.50637e-13
2.31966e-14
1.01182e-14
3.3062e-13
4.83744e-13
1.89983e-13
2.5888e-12
1.34983e-12
4.12861e-12
3.40801e-13
4.97629e-12
3.1332e-11
5.05112e-11
1.85573e-13
1.01182e-14
8.2655e-14
1.09233e-13
1.89983e-13
5.84568e-13
3.37458e-13
1.11201e-12
8.52002e-14
1.49959e-12
4.63932e-14
1.01182e-14
2.06637e-14
1.56046e-14
1.89983e-13
8.35097e-14
8.43644e-14
3.57857e-13
2.13e-14
4.50637e-13
2.31966e-14
1.01182e-14
3.3062e-13
4.83744e-13
1.89983e-13
2.5888e-12
1.34983e-12
4.12861e-12
3.40801e-13
4.97629e-12
3.1332e-11
4.86058e-11
1.85573e-13
1.01182e-14
8.2655e-14
1.09233e-13
1.89983e-13
5.84568e-13
3.37458e-13
1.11201e-12
8.52002e-14
1.49959e-12
4.63932e-14
1.01182e-14
2.06637e-14
1.56046e-14
1.89983e-13
8.35097e-14
8.43644e-14
3.57857e-13
2.13e-14
4.50637e-13
2.31966e-14
1.01182e-14
3.3062e-13
4.83744e-13
1.89983e-13
2.5888e-12
1.34983e-12
4.12861e-12
3.40801e-13
4.97629e-12
3.1332e-11
4.94665e-11
1.85573e-13
1.01182e-14
8.2655e-14
1.09233e-13
1.89983e-13
5.84568e-13
3.37458e-13
1.11201e-12
8.52002e-14
1.49959e-12
4.63932e-14
1.01182e-14
2.06637e-14
1.56046e-14
1.89983e-13
8.35097e-14
8.43644e-14
3.57857e-13
2.13e-14
4.50637e-13
2.31966e-14
1.01182e-14
3.3062e-13
4.83744e-13
1.89983e-13
2.5888e-12
1.34983e-12
4.12861e-12
3.40801e-13
4.97629e-12
3.1332e-11
4.94967e-11
1.85573e-13
1.01182e-14
8.2655e-14
1.09233e-13
1.89983e-13
5.84568e-13
3.37458e-13
1.11201e-12
8.52002e-14
1.49959e-12
4.63932e-14
1.01182e-14
2.06637e-14
1.56046e-14
1.89983e-13
8.35097e-14
8.43644e-14
3.57857e-13
2.13e-14
4.50637e-13
2.31966e-14
1.01182e-14
3.3062e-13
4.83744e-13
1.89983e-13
2.5888e-12
1.34983e-12
4.12861e-12
3.40801e-13
4.97629e-12
3.1332e-11
4.9428e-11
1.85573e-13
1.01182e-14
8.2655e-14
1.09233e-13
1.89983e-13
5.84568e-13
3.37458e-13
1.11201e-12
8.52002e-14
1.49959e-12
4.63932e-14
1.01182e-14
2.06637e-14
1.56046e-14
1.89983e-13
8.35097e-14
8.43644e-14
3.57857e-13
2.13e-14
4.50637e-13
2.31966e-14
1.01182e-14
3.3062e-13
4.83744e-13
1.89983e-13
2.5888e-12
1.34983e-12
4.12861e-12
3.40801e-13
4.97629e-12
3.1332e-11
4.94707e-11
1.85573e-13
1.01182e-14
8.2655e-14
1.09233e-13
1.89983e-13
5.84568e-13
3.37458e-13
1.11201e-12
8.52002e-14
1.49959e-12
4.63932e-14
1.01182e-14
2.06637e-14
1.56046e-14
1.89983e-13
8.35097e-14
8.43644e-14
3.57857e-13
2.13e-14
4.50637e-13
2.31966e-14
1.01182e-14
3.3062e-13
4.83744e-13
1.89983e-13
2.5888e-12
1.34983e-12
4.12861e-12
3.40801e-13
4.97629e-12
3.1332e-11
4.94744e-11
1.85573e-13
1.01182e-14
8.2655e-14
1.09233e-13
1.89983e-13
5.84568e-13
3.37458e-13
1.11201e-12
8.52002e-14
1.49959e-12
4.63932e-14
1.01182e-14
2.06637e-14
1.56046e-14
1.89983e-13
8.35097e-14
8.43644e-14
3.57857e-13
2.13e-14
4.50637e-13
2.31966e-14
1.01182e-14
3.3062e-13
4.83744e-13
1.89983e-13
2.5888e-12
1.34983e-12
4.12861e-12
3.40801e-13
4.97629e-12
3.25105e-11
5.06739e-11
1.85573e-13
1.01182e-14
8.2655e-14
1.09233e-13
1.89983e-13
5.84568e-13
3.37458e-13
1.11201e-12
8.52002e-14
1.49959e-12
4.63932e-14
1.01182e-14
2.06637e-14
1.56046e-14
1.89983e-13
8.35097e-14
8.43644e-14
3.57857e-13
2.13e-14
4.50637e-13
2.31966e-14
1.01182e-14
3.3062e-13
4.83744e-13
1.89983e-13
2.5888e-12
1.34983e-12
4.12861e-12
3.40801e-13
4.97629e-12
3.25105e-11
5.07081e-11
1.85573e-13
1.01182e-14
8.2655e-14
1.09233e-13
1.89983e-13
5.84568e-13
3.37458e-13
1.11201e-12
8.52002e-14
1.49959e-12
4.63932e-14
1.01182e-14
2.06637e-14
1.56046e-14
1.89983e-13
8.35097e-14
8.43644e-14
3.57857e-13
2.13e-14
4.50637e-13
2.31966e-14
1.01182e-14
3.3062e-13
4.83744e-13
1.89983e-13
2.5888e-12
1.34983e-12
4.12861e-12
3.40801e-13
4.97629e-12
3.25105e-11
5.06556e-11
1.85573e-13
1.01182e-14
8.2655e-14
1.09233e-13
1.89983e-13
5.84568e-13
3.37458e-13
1.11201e-12
8.52002e-14
1.49959e-12
4.63932e-14
1.01182e-14
2.06637e-14
1.56046e-14
1.89983e-13
8.35097e-14
8.43644e-14
3.57857e-13
2.13e-14
4.50637e-13
2.31966e-14
1.01182e-14
3.3062e-13
4.83744e-13
1.89983e-13
2.5888e-12
1.34983e-12
4.12861e-12
3.40801e-13
4.97629e-12
3.25105e-11
5.06195e-11
1.85573e-13
1.01182e-14
8.2655e-14
1.09233e-13
1.89983e-13
5.84568e-13
3.37458e-13
1.11201e-12
8.52002e-14
1.49959e-12
4.63932e-14
1.01182e-14
2.06637e-14
1.56046e-14
1.89983e-13
8.35097e-14
8.43644e-14
3.57857e-13
2.13e-14
4.50637e-13
2.31966e-14
1.01182e-14
3.3062e-13
4.83744e-13
1.89983e-13
2.5888e-12
1.34983e-12
4.12861e-12
3.40801e-13
4.97629e-12
3.25105e-11
5.07186e-11
1.85573e-13
1.01182e-14
8.2655e-14
1.09233e-13
1.89983e-13
5.84568e-13
3.37458e-13
1.11201e-12
8.52002e-14
1.49959e-12
4.63932e-14
1.01182e-14
2.06637e-14
1.56046e-14
1.89983e-13
8.35097e-14
8.43644e-14
3.57857e-13
2.13e-14
4.50637e-13
2.31966e-14
1.01182e-14
3.3062e-13
4.83744e-13
1.89983e-13
2.5888e-12
1.34983e-12
4.12861e-12
3.40801e-13
4.97629e-12
3.25105e-11
5.06155e-11
1.85573e-13
1.01182e-14
8.2655e-14
1.09233e-13
1.89983e-13
5.84568e-13
3.37458e-13
1.11201e-12
8.52002e-14
1.49959e-12
4.63932e-14
1.01182e-14
2.06637e-14
1.56046e-14
1.89983e-13
8.35097e-14
8.43644e-14
3.57857e-13
2.13e-14
4.50637e-13
2.31966e-14
1.01182e-14
3.3062e-13
4.83744e-13
1.89983e-13
2.5888e-12
1.34983e-12
4.12861e-12
3.40801e-13
4.97629e-12
3.25105e-11
5.17201e-11
1.85573e-13
1.01182e-14
8.2655e-14
1.09233e-13
1.89983e-13
5.84568e-13
3.37458e-13
1.11201e-12
8.52002e-14
1.49959e-12
4.63932e-14
1.01182e-14
2.06637e-14
1.56046e-14
1.89983e-13
8.35097e-14
8.43644e-14
3.57857e-13
2.13e-14
4.50637e-13
2.31966e-14
1.01182e-14
3.3062e-13
4.83744e-13
1.89983e-13
2.5888e-12
1.34983e-12
4.12861e-12
3.40801e-13
4.97629e-12
3.25105e-11
5.1738e-11
1.85573e-13
1.01182e-14
8.2655e-14
1.09233e-13
1.89983e-13
5.84568e-13
3.37458e-13
1.11201e-12
8.52002e-14
1.49959e-12
4.63932e-14
1.01182e-14
2.06637e-14
1.56046e-14
1.89983e-13
8.35097e-14
8.43644e-14
3.57857e-13
2.13e-14
4.50637e-13
2.31966e-14
1.01182e-14
3.3062e-13
4.83744e-13
1.89983e-13
2.5888e-12
1.34983e-12
4.12861e-12
3.40801e-13
4.97629e-12
3.25105e-11
5.0615e-11
1.85573e-13
1.01182e-14
8.2655e-14
1.09233e-13
1.89983e-13
5.84568e-13
3.37458e-13
1.11201e-12
8.52002e-14
1.49959e-12
4.63932e-14
1.01182e-14
2.06637e-14
1.56046e-14
1.89983e-13
8.35097e-14
8.43644e-14
3.57857e-13
2.13e-14
4.50637e-13
2.31966e-14
1.01182e-14
3.3062e-13
4.83744e-13
1.89983e-13
2.5888e-12
1.34983e-12
4.12861e-12
3.40801e-13
4.97629e-12
3.25105e-11
4.98428e-11
1.85573e-13
1.01182e-14
8.2655e-14
1.09233e-13
1.89983e-13
5.84568e-13
3.37458e-13
1.11201e-12
8.52002e-14
1.49959e-12
4.63932e-14
1.01182e-14
2.06637e-14
1.56046e-14
1.89983e-13
8.35097e-14
8.43644e-14
3.57857e-13
2.13e-14
4.50637e-13
2.31966e-14
1.01182e-14
3.3062e-13
4.83744e-13
1.89983e-13
2.5888e-12
1.34983e-12
4.12861e-12
3.40801e-13
4.97629e-12
3.25105e-11
5.07023e-11
1.85573e-13
1.01182e-14
8.2655e-14
1.09233e-13
1.89983e-13
5.84568e-13
3.37458e-13
1.11201e-12
8.52002e-14
1.49959e-12
4.63932e-14
1.01182e-14
2.06637e-14
1.56046e-14
1.89983e-13
8.35097e-14
8.43644e-14
3.57857e-13
2.13e-14
4.50637e-13
2.31966e-14
1.01182e-14
3.3062e-13
4.83744e-13
1.89983e-13
2.5888e-12
1.34983e-12
4.12861e-12
3.40801e-13
4.97629e-12
3.25105e-11
5.06694e-11
1.85573e-13
1.01182e-14
8.2655e-14
1.09233e-13
1.89983e-13
5.84568e-13
3.37458e-13
1.11201e-12
8.52002e-14
1.49959e-12
4.63932e-14
1.01182e-14
2.06637e-14
1.56046e-14
1.89983e-13
8.35097e-14
8.43644e-14
3.57857e-13
2.13e-14
4.50637e-13
2.31966e-14
1.01182e-14
3.3062e-13
4.83744e-13
1.89983e-13
2.5888e-12
1.34983e-12
4.12861e-12
3.40801e-13
4.97629e-12
3.25105e-11
5.06385e-11
1.85573e-13
1.01182e-14
8.2655e-14
1.09233e-13
1.89983e-13
5.84568e-13
3.37458e-13
1.11201e-12
8.52002e-14
1.49959e-12
4.63932e-14
1.01182e-14
2.06637e-14
1.56046e-14
1.89983e-13
8.35097e-14
8.43644e-14
3.57857e-13
2.13e-14
4.50637e-13
2.31966e-14
1.01182e-14
3.3062e-13
4.83744e-13
1.89983e-13
2.5888e-12
1.34983e-12
4.12861e-12
3.40801e-13
4.97629e-12
3.25105e-11
4.981e-11
1.85573e-13
1.01182e-14
8.2655e-14
1.09233e-13
1.89983e-13
5.84568e-13
3.37458e-13
1.11201e-12
8.52002e-14
1.49959e-12
4.63932e-14
1.01182e-14
2.06637e-14
1.56046e-14
1.89983e-13
8.35097e-14
8.43644e-14
3.57857e-13
2.13e-14
4.50637e-13
2.31966e-14
1.01182e-14
3.3062e-13
4.83744e-13
1.89983e-13
2.5888e-12
1.34983e-12
4.12861e-12
3.40801e-13
4.97629e-12
3.25105e-11
5.06555e-11
1.85573e-13
1.01182e-14
8.2655e-14
1.09233e-13
1.89983e-13
[...]
1.09233e-13
1.89983e-13
5.84568e-13
3.37458e-13
1.11201e-12
8.52002e-14
1.49959e-12
4.63932e-14
1.01182e-14
2.06637e-14
1.56046e-14
1.89983e-13
8.35097e-14
8.43644e-14
3.57857e-13
2.13e-14
4.50637e-13
2.31966e-14
1.01182e-14
3.3062e-13
4.83744e-13
1.89983e-13
2.5888e-12
1.34983e-12
4.12861e-12
3.40801e-13
4.97629e-12
4.42953e-11
5.95498e-11
1.85573e-13
1.01182e-14
8.2655e-14
1.09233e-13
1.89983e-13
5.84568e-13
3.37458e-13
1.11201e-12
8.52002e-14
1.49959e-12
4.63932e-14
1.01182e-14
2.06637e-14
1.56046e-14
1.89983e-13
8.35097e-14
8.43644e-14
3.57857e-13
2.13e-14
4.50637e-13
2.31966e-14
1.01182e-14
3.3062e-13
4.83744e-13
1.89983e-13
2.5888e-12
1.34983e-12
4.12861e-12
3.40801e-13
4.97629e-12
4.42953e-11
6.26033e-11
1.85573e-13
1.01182e-14
8.2655e-14
1.09233e-13
1.89983e-13
5.84568e-13
3.37458e-13
1.11201e-12
8.52002e-14
1.49959e-12
4.63932e-14
1.01182e-14
2.06637e-14
1.56046e-14
1.89983e-13
8.35097e-14
8.43644e-14
3.57857e-13
2.13e-14
4.50637e-13
2.31966e-14
1.01182e-14
3.3062e-13
4.83744e-13
1.89983e-13
2.5888e-12
1.34983e-12
4.12861e-12
3.40801e-13
4.97629e-12
4.42953e-11
5.97145e-11
1.85573e-13
1.01182e-14
8.2655e-14
1.09233e-13
1.89983e-13
5.84568e-13
3.37458e-13
1.11201e-12
8.52002e-14
1.49959e-12
4.63932e-14
1.01182e-14
2.06637e-14
1.56046e-14
1.89983e-13
8.35097e-14
8.43644e-14
3.57857e-13
2.13e-14
4.50637e-13
2.31966e-14
1.01182e-14
3.3062e-13
4.83744e-13
1.89983e-13
2.5888e-12
1.34983e-12
4.12861e-12
3.40801e-13
4.97629e-12
4.42953e-11
5.90695e-11
1.85573e-13
1.01182e-14
8.2655e-14
1.09233e-13
1.89983e-13
5.84568e-13
3.37458e-13
1.11201e-12
8.52002e-14
1.49959e-12
4.63932e-14
1.01182e-14
2.06637e-14
1.56046e-14
1.89983e-13
8.35097e-14
8.43644e-14
3.57857e-13
2.13e-14
4.50637e-13
2.31966e-14
1.01182e-14
3.3062e-13
4.83744e-13
1.89983e-13
2.5888e-12
1.34983e-12
4.12861e-12
3.40801e-13
4.97629e-12
4.42953e-11
5.88459e-11
1.85573e-13
1.01182e-14
8.2655e-14
1.09233e-13
1.89983e-13
5.84568e-13
3.37458e-13
1.11201e-12
8.52002e-14
1.49959e-12
4.63932e-14
1.01182e-14
2.06637e-14
1.56046e-14
1.89983e-13
8.35097e-14
8.43644e-14
3.57857e-13
2.13e-14
4.50637e-13
2.31966e-14
1.01182e-14
3.3062e-13
4.83744e-13
1.89983e-13
2.5888e-12
1.34983e-12
4.12861e-12
3.40801e-13
4.97629e-12
4.54738e-11
6.23661e-11
1.85573e-13
1.01182e-14
8.2655e-14
1.09233e-13
1.89983e-13
5.84568e-13
3.37458e-13
1.11201e-12
8.52002e-14
1.49959e-12
4.63932e-14
1.01182e-14
2.06637e-14
1.56046e-14
1.89983e-13
8.35097e-14
8.43644e-14
3.57857e-13
2.13e-14
4.50637e-13
2.31966e-14
1.01182e-14
3.3062e-13
4.83744e-13
1.89983e-13
2.5888e-12
1.34983e-12
4.12861e-12
3.40801e-13
4.97629e-12
4.54738e-11
6.58306e-11
1.85573e-13
1.01182e-14
8.2655e-14
1.09233e-13
1.89983e-13
5.84568e-13
3.37458e-13
1.11201e-12
8.52002e-14
1.49959e-12
4.63932e-14
1.01182e-14
2.06637e-14
1.56046e-14
1.89983e-13
8.35097e-14
8.43644e-14
3.57857e-13
2.13e-14
4.50637e-13
2.31966e-14
1.01182e-14
3.3062e-13
4.83744e-13
1.89983e-13
2.5888e-12
1.34983e-12
4.12861e-12
3.40801e-13
4.97629e-12
4.54738e-11
6.18547e-11
1.85573e-13
1.01182e-14
8.2655e-14
1.09233e-13
1.89983e-13
5.84568e-13
3.37458e-13
1.11201e-12
8.52002e-14
1.49959e-12
4.63932e-14
1.01182e-14
2.06637e-14
1.56046e-14
1.89983e-13
8.35097e-14
8.43644e-14
3.57857e-13
2.13e-14
4.50637e-13
2.31966e-14
1.01182e-14
3.3062e-13
4.83744e-13
1.89983e-13
2.5888e-12
1.34983e-12
4.12861e-12
3.40801e-13
4.97629e-12
4.54738e-11
6.13845e-11
1.85573e-13
1.01182e-14
8.2655e-14
1.09233e-13
1.89983e-13
5.84568e-13
3.37458e-13
1.11201e-12
8.52002e-14
1.49959e-12
4.63932e-14
1.01182e-14
2.06637e-14
1.56046e-14
1.89983e-13
8.35097e-14
8.43644e-14
3.57857e-13
2.13e-14
4.50637e-13
2.31966e-14
1.01182e-14
3.3062e-13
4.83744e-13
1.89983e-13
2.5888e-12
1.34983e-12
4.12861e-12
3.40801e-13
4.97629e-12
4.54738e-11
6.25227e-11
1.85573e-13
1.01182e-14
8.2655e-14
1.09233e-13
1.89983e-13
5.84568e-13
3.37458e-13
1.11201e-12
8.52002e-14
1.49959e-12
4.63932e-14
1.01182e-14
2.06637e-14
1.56046e-14
1.89983e-13
8.35097e-14
8.43644e-14
3.57857e-13
2.13e-14
4.50637e-13
2.31966e-14
1.01182e-14
3.3062e-13
4.83744e-13
1.89983e-13
2.5888e-12
1.34983e-12
4.12861e-12
3.40801e-13
4.97629e-12
4.54738e-11
6.53522e-11
1.85573e-13
1.01182e-14
8.2655e-14
1.09233e-13
1.89983e-13
5.84568e-13
3.37458e-13
1.11201e-12
8.52002e-14
1.49959e-12
4.63932e-14
1.01182e-14
2.06637e-14
1.56046e-14
1.89983e-13
8.35097e-14
8.43644e-14
3.57857e-13
2.13e-14
4.50637e-13
2.31966e-14
1.01182e-14
3.3062e-13
4.83744e-13
1.89983e-13
2.5888e-12
1.34983e-12
4.12861e-12
3.40801e-13
4.97629e-12
4.54738e-11
6.20624e-11
1.85573e-13
1.01182e-14
8.2655e-14
1.09233e-13
1.89983e-13
5.84568e-13
3.37458e-13
1.11201e-12
8.52002e-14
1.49959e-12
4.63932e-14
1.01182e-14
2.06637e-14
1.56046e-14
1.89983e-13
8.35097e-14
8.43644e-14
3.57857e-13
2.13e-14
4.50637e-13
2.31966e-14
1.01182e-14
3.3062e-13
4.83744e-13
1.89983e-13
2.5888e-12
1.34983e-12
4.12861e-12
3.40801e-13
4.97629e-12
4.54738e-11
6.16077e-11
1.85573e-13
1.01182e-14
8.2655e-14
1.09233e-13
1.89983e-13
5.84568e-13
3.37458e-13
1.11201e-12
8.52002e-14
1.49959e-12
4.63932e-14
1.01182e-14
2.06637e-14
1.56046e-14
1.89983e-13
8.35097e-14
8.43644e-14
3.57857e-13
2.13e-14
4.50637e-13
2.31966e-14
1.01182e-14
3.3062e-13
4.83744e-13
1.89983e-13
2.5888e-12
1.34983e-12
4.12861e-12
3.40801e-13
4.97629e-12
4.54738e-11
6.25497e-11
1.85573e-13
1.01182e-14
8.2655e-14
1.09233e-13
1.89983e-13
5.84568e-13
3.37458e-13
1.11201e-12
8.52002e-14
1.49959e-12
4.63932e-14
1.01182e-14
2.06637e-14
1.56046e-14
1.89983e-13
8.35097e-14
8.43644e-14
3.57857e-13
2.13e-14
4.50637e-13
2.31966e-14
1.01182e-14
3.3062e-13
4.83744e-13
1.89983e-13
2.5888e-12
1.34983e-12
4.12861e-12
3.40801e-13
4.97629e-12
4.54738e-11
6.19282e-11
1.85573e-13
1.01182e-14
8.2655e-14
1.09233e-13
1.89983e-13
5.84568e-13
3.37458e-13
1.11201e-12
8.52002e-14
1.49959e-12
4.63932e-14
1.01182e-14
2.06637e-14
1.56046e-14
1.89983e-13
8.35097e-14
8.43644e-14
3.57857e-13
2.13e-14
4.50637e-13
2.31966e-14
1.01182e-14
3.3062e-13
4.83744e-13
1.89983e-13
2.5888e-12
1.34983e-12
4.12861e-12
3.40801e-13
4.97629e-12
4.54738e-11
6.15692e-11
1.85573e-13
1.01182e-14
8.2655e-14
1.09233e-13
1.89983e-13
5.84568e-13
3.37458e-13
1.11201e-12
8.52002e-14
1.49959e-12
4.63932e-14
1.01182e-14
2.06637e-14
1.56046e-14
1.89983e-13
8.35097e-14
8.43644e-14
3.57857e-13
2.13e-14
4.50637e-13
2.31966e-14
1.01182e-14
3.3062e-13
4.83744e-13
1.89983e-13
2.5888e-12
1.34983e-12
4.12861e-12
3.40801e-13
4.97629e-12
4.54738e-11
6.47511e-11
1.85573e-13
1.01182e-14
8.2655e-14
1.09233e-13
1.89983e-13
5.84568e-13
3.37458e-13
1.11201e-12
8.52002e-14
1.49959e-12
4.63932e-14
1.01182e-14
2.06637e-14
1.56046e-14
1.89983e-13
8.35097e-14
8.43644e-14
3.57857e-13
2.13e-14
4.50637e-13
2.31966e-14
1.01182e-14
3.3062e-13
4.83744e-13
1.89983e-13
2.5888e-12
1.34983e-12
4.12861e-12
3.40801e-13
4.97629e-12
4.54738e-11
6.1909e-11
1.85573e-13
1.01182e-14
8.2655e-14
1.09233e-13
1.89983e-13
5.84568e-13
3.37458e-13
1.11201e-12
8.52002e-14
1.49959e-12
4.63932e-14
1.01182e-14
2.06637e-14
1.56046e-14
1.89983e-13
8.35097e-14
8.43644e-14
3.57857e-13
2.13e-14
4.50637e-13
2.31966e-14
1.01182e-14
3.3062e-13
4.83744e-13
1.89983e-13
2.5888e-12
1.34983e-12
4.12861e-12
3.40801e-13
4.97629e-12
4.54738e-11
6.41877e-11
1.85573e-13
1.01182e-14
8.2655e-14
1.09233e-13
1.89983e-13
5.84568e-13
3.37458e-13
1.11201e-12
8.52002e-14
1.49959e-12
4.63932e-14
1.01182e-14
2.06637e-14
1.56046e-14
1.89983e-13
8.35097e-14
8.43644e-14
3.57857e-13
2.13e-14
4.50637e-13
2.31966e-14
1.01182e-14
3.3062e-13
4.83744e-13
1.89983e-13
2.5888e-12
1.34983e-12
4.12861e-12
3.40801e-13
4.97629e-12
4.54738e-11
6.14095e-11
1.85573e-13
1.01182e-14
8.2655e-14
1.09233e-13
1.89983e-13
5.84568e-13
3.37458e-13
1.11201e-12
8.52002e-14
1.49959e-12
4.63932e-14
1.01182e-14
2.06637e-14
1.56046e-14
1.89983e-13
8.35097e-14
8.43644e-14
3.57857e-13
2.13e-14
4.50637e-13
2.31966e-14
1.01182e-14
3.3062e-13
4.83744e-13
1.89983e-13
2.5888e-12
1.34983e-12
4.12861e-12
3.40801e-13
4.97629e-12
4.54738e-11
6.28548e-11
1.85573e-13
1.01182e-14
8.2655e-14
1.09233e-13
1.89983e-13
5.84568e-13
3.37458e-13
1.11201e-12
8.52002e-14
1.49959e-12
4.63932e-14
1.01182e-14
2.06637e-14
1.56046e-14
1.89983e-13
8.35097e-14
8.43644e-14
3.57857e-13
2.13e-14
4.50637e-13
2.31966e-14
1.01182e-14
3.3062e-13
4.83744e-13
1.89983e-13
2.5888e-12
1.34983e-12
4.12861e-12
3.40801e-13
4.97629e-12
4.66523e-11
6.6487e-11
1.85573e-13
1.01182e-14
8.2655e-14
1.09233e-13
1.89983e-13
5.84568e-13
3.37458e-13
1.11201e-12
8.52002e-14
1.49959e-12
4.63932e-14
1.01182e-14
2.06637e-14
1.56046e-14
1.89983e-13
8.35097e-14
8.43644e-14
3.57857e-13
2.13e-14
4.50637e-13
2.31966e-14
1.01182e-14
3.3062e-13
4.83744e-13
1.89983e-13
2.5888e-12
1.34983e-12
4.12861e-12
3.40801e-13
4.97629e-12
4.66523e-11
6.32407e-11
1.85573e-13
1.01182e-14
8.2655e-14
1.09233e-13
1.89983e-13
5.84568e-13
3.37458e-13
1.11201e-12
8.52002e-14
1.49959e-12
4.63932e-14
1.01182e-14
2.06637e-14
1.56046e-14
1.89983e-13
8.35097e-14
8.43644e-14
3.57857e-13
2.13e-14
4.50637e-13
2.31966e-14
1.01182e-14
3.3062e-13
4.83744e-13
1.89983e-13
2.5888e-12
1.34983e-12
4.12861e-12
3.40801e-13
4.97629e-12
4.66523e-11
6.28729e-11
1.85573e-13
1.01182e-14
8.2655e-14
1.09233e-13
1.89983e-13
5.84568e-13
3.37458e-13
1.11201e-12
8.52002e-14
1.49959e-12
4.63932e-14
1.01182e-14
2.06637e-14
1.56046e-14
1.89983e-13
8.35097e-14
8.43644e-14
3.57857e-13
2.13e-14
4.50637e-13
2.31966e-14
1.01182e-14
3.3062e-13
4.83744e-13
1.89983e-13
2.5888e-12
1.34983e-12
4.12861e-12
3.40801e-13
4.97629e-12
4.66523e-11
6.24693e-11
1.85573e-13
1.01182e-14
8.2655e-14
1.09233e-13
1.89983e-13
5.84568e-13
3.37458e-13
1.11201e-12
8.52002e-14
1.49959e-12
4.63932e-14
1.01182e-14
2.06637e-14
1.56046e-14
1.89983e-13
8.35097e-14
8.43644e-14
3.57857e-13
2.13e-14
4.50637e-13
2.31966e-14
1.01182e-14
3.3062e-13
4.83744e-13
1.89983e-13
2.5888e-12
1.34983e-12
4.12861e-12
3.40801e-13
4.97629e-12
4.66523e-11
6.6781e-11
1.85573e-13
1.01182e-14
8.2655e-14
1.09233e-13
1.89983e-13
5.84568e-13
3.37458e-13
1.11201e-12
8.52002e-14
1.49959e-12
4.63932e-14
1.01182e-14
2.06637e-14
1.56046e-14
1.89983e-13
8.35097e-14
8.43644e-14
3.57857e-13
2.13e-14
4.50637e-13
2.31966e-14
1.01182e-14
3.3062e-13
4.83744e-13
1.89983e-13
2.5888e-12
1.34983e-12
4.12861e-12
3.40801e-13
4.97629e-12
4.66523e-11
6.23222e-11
1.85573e-13
1.01182e-14
8.2655e-14
1.09233e-13
1.89983e-13
5.84568e-13
3.37458e-13
1.11201e-12
8.52002e-14
1.49959e-12
4.63932e-14
1.01182e-14
2.06637e-14
1.56046e-14
1.89983e-13
8.35097e-14
8.43644e-14
3.57857e-13
2.13e-14
4.50637e-13
2.31966e-14
1.01182e-14
3.3062e-13
4.83744e-13
1.89983e-13
2.5888e-12
1.34983e-12
4.12861e-12
3.40801e-13
4.97629e-12
4.66523e-11
6.19345e-11
1.85573e-13
1.01182e-14
8.2655e-14
1.09233e-13
1.89983e-13
5.84568e-13
3.37458e-13
1.11201e-12
8.52002e-14
1.49959e-12
4.63932e-14
1.01182e-14
2.06637e-14
1.56046e-14
1.89983e-13
8.35097e-14
8.43644e-14
3.57857e-13
2.13e-14
4.50637e-13
2.31966e-14
1.01182e-14
3.3062e-13
4.83744e-13
1.89983e-13
2.5888e-12
1.34983e-12
4.12861e-12
3.40801e-13
4.97629e-12
4.66523e-11
6.16577e-11
1.85573e-13
1.01182e-14
8.2655e-14
1.09233e-13
1.89983e-13
5.84568e-13
3.37458e-13
1.11201e-12
8.52002e-14
1.49959e-12
4.63932e-14
1.01182e-14
2.06637e-14
1.56046e-14
1.89983e-13
8.35097e-14
8.43644e-14
3.57857e-13
2.13e-14
4.50637e-13
2.31966e-14
1.01182e-14
3.3062e-13
4.83744e-13
1.89983e-13
2.5888e-12
1.34983e-12
4.12861e-12
3.40801e-13
4.97629e-12
4.66523e-11
6.64679e-11
1.85573e-13
1.01182e-14
8.2655e-14
1.09233e-13
1.89983e-13
5.84568e-13
3.37458e-13
1.11201e-12
8.52002e-14
1.49959e-12
4.63932e-14
1.01182e-14
2.06637e-14
1.56046e-14
1.89983e-13
8.35097e-14
8.43644e-14
3.57857e-13
2.13e-14
4.50637e-13
2.31966e-14
1.01182e-14
3.3062e-13
4.83744e-13
1.89983e-13
2.5888e-12
1.34983e-12
4.12861e-12
3.40801e-13
4.97629e-12
4.66523e-11
6.2669e-11
1.85573e-13
1.01182e-14
8.2655e-14
1.09233e-13
1.89983e-13
5.84568e-13
3.37458e-13
1.11201e-12
8.52002e-14
1.49959e-12
4.63932e-14
1.01182e-14
2.06637e-14
1.56046e-14
1.89983e-13
8.35097e-14
8.43644e-14
3.57857e-13
2.13e-14
4.50637e-13
2.31966e-14
1.01182e-14
3.3062e-13
4.83744e-13
1.89983e-13
2.5888e-12
1.34983e-12
4.12861e-12
3.40801e-13
4.97629e-12
4.66523e-11
6.21943e-11
1.85573e-13
1.01182e-14
8.2655e-14
1.09233e-13
1.89983e-13
5.84568e-13
3.37458e-13
1.11201e-12
8.52002e-14
1.49959e-12
4.63932e-14
1.01182e-14
2.06637e-14
1.56046e-14
1.89983e-13
8.35097e-14
8.43644e-14
3.57857e-13
2.13e-14
4.50637e-13
2.31966e-14
1.01182e-14
3.3062e-13
4.83744e-13
1.89983e-13
2.5888e-12
1.34983e-12
4.12861e-12
3.40801e-13
4.97629e-12
4.66523e-11
6.20343e-11
1.85573e-13
1.01182e-14
8.2655e-14
1.09233e-13
1.89983e-13
5.84568e-13
3.37458e-13
1.11201e-12
8.52002e-14
1.49959e-12
4.63932e-14
1.01182e-14
2.06637e-14
1.56046e-14
1.89983e-13
8.35097e-14
8.43644e-14
3.57857e-13
2.13e-14
4.50637e-13
2.31966e-14
1.01182e-14
3.3062e-13
4.83744e-13
1.89983e-13
2.5888e-12
1.34983e-12
4.12861e-12
3.40801e-13
4.97629e-12
4.66523e-11
6.27095e-11
1.85573e-13
1.01182e-14
8.2655e-14
1.09233e-13
1.89983e-13
5.84568e-13
3.37458e-13
1.11201e-12
8.52002e-14
1.49959e-12
4.63932e-14
1.01182e-14
2.06637e-14
1.56046e-14
1.89983e-13
8.35097e-14
8.43644e-14
3.57857e-13
2.13e-14
4.50637e-13
2.31966e-14
1.01182e-14
3.3062e-13
4.83744e-13
1.89983e-13
2.5888e-12
1.34983e-12
4.12861e-12
3.40801e-13
4.97629e-12
4.66523e-11
6.28865e-11
1.85573e-13
1.01182e-14
8.2655e-14
1.09233e-13
1.89983e-13
5.84568e-13
3.37458e-13
1.11201e-12
8.52002e-14
1.49959e-12
4.63932e-14
1.01182e-14
2.06637e-14
1.56046e-14
1.89983e-13
8.35097e-14
8.43644e-14
3.57857e-13
2.13e-14
4.50637e-13
2.31966e-14
1.01182e-14
3.3062e-13
4.83744e-13
1.89983e-13
2.5888e-12
1.34983e-12
4.12861e-12
3.40801e-13
4.97629e-12
4.66523e-11
6.18534e-11
1.85573e-13
1.01182e-14
8.2655e-14
1.09233e-13
1.89983e-13
5.84568e-13
3.37458e-13
1.11201e-12
8.52002e-14
1.49959e-12
4.63932e-14
1.01182e-14
2.06637e-14
1.56046e-14
1.89983e-13
8.35097e-14
8.43644e-14
3.57857e-13
2.13e-14
4.50637e-13
2.31966e-14
1.01182e-14
3.3062e-13
4.83744e-13
1.89983e-13
2.5888e-12
1.34983e-12
4.12861e-12
3.40801e-13
4.97629e-12
4.66523e-11
6.14779e-11
1.85573e-13
1.01182e-14
8.2655e-14
1.09233e-13
1.89983e-13
5.84568e-13
3.37458e-13
1.11201e-12
8.52002e-14
1.49959e-12
4.63932e-14
1.01182e-14
2.06637e-14
1.56046e-14
1.89983e-13
8.35097e-14
8.43644e-14
3.57857e-13
2.13e-14
4.50637e-13
2.31966e-14
1.01182e-14
3.3062e-13
4.83744e-13
1.89983e-13
2.5888e-12
1.34983e-12
4.12861e-12
3.40801e-13
4.97629e-12
4.78308e-11
6.42698e-11
1.85573e-13
1.01182e-14
8.2655e-14
1.09233e-13
1.89983e-13
5.84568e-13
3.37458e-13
1.11201e-12
8.52002e-14
1.49959e-12
4.63932e-14
1.01182e-14
2.06637e-14
1.56046e-14
1.89983e-13
8.35097e-14
8.43644e-14
3.57857e-13
2.13e-14
4.50637e-13
2.31966e-14
1.01182e-14
3.3062e-13
4.83744e-13
1.89983e-13
2.5888e-12
1.34983e-12
4.12861e-12
3.40801e-13
4.97629e-12
4.78308e-11
6.81346e-11
1.85573e-13
1.01182e-14
8.2655e-14
1.09233e-13
1.89983e-13
5.84568e-13
3.37458e-13
1.11201e-12
8.52002e-14
1.49959e-12
4.63932e-14
1.01182e-14
2.06637e-14
1.56046e-14
1.89983e-13
8.35097e-14
8.43644e-14
3.57857e-13
2.13e-14
4.50637e-13
2.31966e-14
1.01182e-14
3.3062e-13
4.83744e-13
1.89983e-13
2.5888e-12
1.34983e-12
4.12861e-12
3.40801e-13
4.97629e-12
4.78308e-11
6.67784e-11
1.85573e-13
1.01182e-14
8.2655e-14
1.09233e-13
1.89983e-13
5.84568e-13
3.37458e-13
1.11201e-12
8.52002e-14
1.49959e-12
4.63932e-14
1.01182e-14
2.06637e-14
1.56046e-14
1.89983e-13
8.35097e-14
8.43644e-14
3.57857e-13
2.13e-14
4.50637e-13
2.31966e-14
1.01182e-14
3.3062e-13
4.83744e-13
1.89983e-13
2.5888e-12
1.34983e-12
4.12861e-12
3.40801e-13
4.97629e-12
4.78308e-11
6.34382e-11
1.85573e-13
1.01182e-14
8.2655e-14
1.09233e-13
1.89983e-13
5.84568e-13
3.37458e-13
1.11201e-12
8.52002e-14
1.49959e-12
4.63932e-14
1.01182e-14
2.06637e-14
1.56046e-14
1.89983e-13
8.35097e-14
8.43644e-14
3.57857e-13
2.13e-14
4.50637e-13
2.31966e-14
1.01182e-14
3.3062e-13
4.83744e-13
1.89983e-13
2.5888e-12
1.34983e-12
4.12861e-12
3.40801e-13
4.97629e-12
4.78308e-11
6.47563e-11
1.85573e-13
1.01182e-14
8.2655e-14
1.09233e-13
1.89983e-13
5.84568e-13
3.37458e-13
1.11201e-12
8.52002e-14
1.49959e-12
4.63932e-14
1.01182e-14
2.06637e-14
1.56046e-14
1.89983e-13
8.35097e-14
8.43644e-14
3.57857e-13
2.13e-14
4.50637e-13
2.31966e-14
1.01182e-14
3.3062e-13
4.83744e-13
1.89983e-13
2.5888e-12
1.34983e-12
4.12861e-12
3.40801e-13
4.97629e-12
4.78308e-11
6.6937e-11
1.85573e-13
1.01182e-14
8.2655e-14
1.09233e-13
1.89983e-13
5.84568e-13
3.37458e-13
1.11201e-12
8.52002e-14
1.49959e-12
4.63932e-14
1.01182e-14
2.06637e-14
1.56046e-14
1.89983e-13
8.35097e-14
8.43644e-14
3.57857e-13
2.13e-14
4.50637e-13
2.31966e-14
1.01182e-14
3.3062e-13
4.83744e-13
1.89983e-13
2.5888e-12
1.34983e-12
4.12861e-12
3.40801e-13
4.97629e-12
4.78308e-11
6.39373e-11
1.85573e-13
1.01182e-14
8.2655e-14
1.09233e-13
1.89983e-13
5.84568e-13
3.37458e-13
1.11201e-12
8.52002e-14
1.49959e-12
4.63932e-14
1.01182e-14
2.06637e-14
1.56046e-14
1.89983e-13
8.35097e-14
8.43644e-14
3.57857e-13
2.13e-14
4.50637e-13
2.31966e-14
1.01182e-14
3.3062e-13
4.83744e-13
1.89983e-13
2.5888e-12
1.34983e-12
4.12861e-12
3.40801e-13
4.97629e-12
4.78308e-11
6.53995e-11
1.85573e-13
1.01182e-14
8.2655e-14
1.09233e-13
1.89983e-13
5.84568e-13
3.37458e-13
1.11201e-12
8.52002e-14
1.49959e-12
4.63932e-14
1.01182e-14
2.06637e-14
1.56046e-14
1.89983e-13
8.35097e-14
8.43644e-14
3.57857e-13
2.13e-14
4.50637e-13
2.31966e-14
1.01182e-14
3.3062e-13
4.83744e-13
1.89983e-13
2.5888e-12
1.34983e-12
4.12861e-12
3.40801e-13
4.97629e-12
4.78308e-11
6.42421e-11
1.85573e-13
1.01182e-14
8.2655e-14
1.09233e-13
1.89983e-13
5.84568e-13
3.37458e-13
1.11201e-12
8.52002e-14
1.49959e-12
4.63932e-14
1.01182e-14
2.06637e-14
1.56046e-14
1.89983e-13
8.35097e-14
8.43644e-14
3.57857e-13
2.13e-14
4.50637e-13
2.31966e-14
1.01182e-14
3.3062e-13
4.83744e-13
1.89983e-13
2.5888e-12
1.34983e-12
4.12861e-12
3.40801e-13
4.97629e-12
4.78308e-11
6.75281e-11
1.85573e-13
1.01182e-14
8.2655e-14
1.09233e-13
1.89983e-13
5.84568e-13
3.37458e-13
1.11201e-12
8.52002e-14
1.49959e-12
4.63932e-14
1.01182e-14
2.06637e-14
1.56046e-14
1.89983e-13
8.35097e-14
8.43644e-14
3.57857e-13
2.13e-14
4.50637e-13
2.31966e-14
1.01182e-14
3.3062e-13
4.83744e-13
1.89983e-13
2.5888e-12
1.34983e-12
4.12861e-12
3.40801e-13
4.97629e-12
4.78308e-11
6.58586e-11
1.85573e-13
1.01182e-14
8.2655e-14
1.09233e-13
1.89983e-13
5.84568e-13
3.37458e-13
1.11201e-12
8.52002e-14
1.49959e-12
4.63932e-14
1.01182e-14
2.06637e-14
1.56046e-14
1.89983e-13
8.35097e-14
8.43644e-14
3.57857e-13
2.13e-14
4.50637e-13
2.31966e-14
1.01182e-14
3.3062e-13
4.83744e-13
1.89983e-13
2.5888e-12
1.34983e-12
4.12861e-12
3.40801e-13
4.97629e-12
4.78308e-11
6.32251e-11
1.85573e-13
1.01182e-14
8.2655e-14
1.09233e-13
1.89983e-13
5.84568e-13
3.37458e-13
1.11201e-12
8.52002e-14
1.49959e-12
4.63932e-14
1.01182e-14
2.06637e-14
1.56046e-14
1.89983e-13
8.35097e-14
8.43644e-14
3.57857e-13
2.13e-14
4.50637e-13
2.31966e-14
1.01182e-14
3.3062e-13
4.83744e-13
1.89983e-13
2.5888e-12
1.34983e-12
4.12861e-12
3.40801e-13
4.97629e-12
4.78308e-11
6.40814e-11
1.85573e-13
1.01182e-14
8.2655e-14
1.09233e-13
1.89983e-13
5.84568e-13
3.37458e-13
1.11201e-12
8.52002e-14
1.49959e-12
4.63932e-14
1.01182e-14
2.06637e-14
1.56046e-14
1.89983e-13
8.35097e-14
8.43644e-14
3.57857e-13
2.13e-14
4.50637e-13
2.31966e-14
1.01182e-14
3.3062e-13
4.83744e-13
1.89983e-13
2.5888e-12
1.34983e-12
4.12861e-12
3.40801e-13
4.97629e-12
4.78308e-11
6.77627e-11
1.85573e-13
1.01182e-14
8.2655e-14
1.09233e-13
1.89983e-13
5.84568e-13
3.37458e-13
1.11201e-12
8.52002e-14
1.49959e-12
4.63932e-14
1.01182e-14
2.06637e-14
1.56046e-14
1.89983e-13
8.35097e-14
8.43644e-14
3.57857e-13
2.13e-14
4.50637e-13
2.31966e-14
1.01182e-14
3.3062e-13
4.83744e-13
1.89983e-13
2.5888e-12
1.34983e-12
4.12861e-12
3.40801e-13
4.97629e-12
4.78308e-11
6.36375e-11
1.85573e-13
1.01182e-14
8.2655e-14
1.09233e-13
1.89983e-13
5.84568e-13
3.37458e-13
1.11201e-12
8.52002e-14
1.49959e-12
4.63932e-14
1.01182e-14
2.06637e-14
1.56046e-14
1.89983e-13
8.35097e-14
8.43644e-14
3.57857e-13
2.13e-14
4.50637e-13
2.31966e-14
1.01182e-14
3.3062e-13
4.83744e-13
1.89983e-13
2.5888e-12
1.34983e-12
4.12861e-12
3.40801e-13
4.97629e-12
4.78308e-11
6.33177e-11
