BEGIN Configuration File: /Users/yash/Projects/wsc-noc-dvfs/final_paper_sims/flatfly/flatfly_perf_target_inj0.6_cap0.7/config.cfg

// Final Paper Simulation Config
// Topology: flatfly, Policy: perf_target
// Injection Rate: 0.6, Power Cap: 0.7W

// VC Configuration
read_request_begin_vc  = 0;
read_request_end_vc    = 5;
write_reply_begin_vc   = 2;
write_reply_end_vc     = 7;
read_reply_begin_vc    = 8;
read_reply_end_vc      = 12;
write_request_begin_vc = 10;
write_request_end_vc   = 15;
num_vcs     = 16;
vc_buf_size = 8;
wait_for_tail_credit = 0;
vc_allocator = max_size;
sw_allocator = max_size;
alloc_iters  = 2;
credit_delay   = 2;
routing_delay  = 0;
vc_alloc_delay = 1;
sw_alloc_delay = 1;
st_final_delay = 1;
input_speedup     = 1;
output_speedup    = 1;
internal_speedup  = 1.0;

// Detailed simulation settings (longer runs for accuracy)
sim_type = latency;
warmup_periods = 3;
sim_count = 1;
sample_period  = 10000;
max_samples = 15;
use_read_write = 0;
batch_size = 10000;
latency_thres = 5000;
packet_size = 1;

// Topology

topology = flatfly;
subnets = 1;
c  = 4;
k  = 4;
n  = 2;
x  = 4;
y  = 4;
xr = 2;
yr = 2;
limit = 64;
routing_function = ran_min;


// Traffic - 2 classes with different priorities
// Using uniform traffic with configurable injection rate
// Split injection: 30% control (class 0), 70% batch (class 1)
traffic = uniform;
injection_rate = {0.18,0.42};

// 2-class traffic for SLO-aware policies
classes = 2;
class_priority = {1,0};
class_slo = {50,-1};
priority_policy = static_class;

// Orion power model
use_orion = 1;
Vdd = 1.0;
Orion_tr = 0.2;
Orion_Freq = 1e9;
Orion_inport = 5;
Orion_outport = 5;
Orion_bitwidth = 128;
Orion_vc_class = 1;
Orion_IsSharedBuffIn = 0;
Orion_IsSharedBuffOut = 0;
Orion_crossbar_model = 0;
Orion_crsbar_degree = 4;
Orion_Cxbar_Cxpoint = 0;
Orion_trans_type = 0;
Orion_IsInBuff = 1;
Orion_out_buf_size = 0;
Orion_IsOutBuff = 0;
Orion_buff_type = 0;
Orion_in_arb_model = 1;
Orion_out_arb_model = 1;
Orion_allocator_model = 1;
Orion_in_vc_arb_model = 1;
Orion_out_vc_arb_model = 1;
wire_length = 1.0;

// Power cap
power_cap = 0.7;

// DVFS base settings
dvfs_epoch = 10000;
dvfs_log_interval = 10000;
dvfs_freqs = 1.0;
dvfs_voltages = 1.0;
router_domains = 0;

// Policy-specific settings

dvfs_policy = perf_target;
dvfs_min_scale = 0.5;
dvfs_max_scale = 1.0;
perf_target_metric = latency;
perf_target_value = 50.0;
perf_target_class = 0;
perf_target_kp = 0.05;
perf_target_per_router = 1;
perf_target_headroom_margin = 0.05;


// Output files
latency_csv = latency.csv;
stall_csv = stalls.csv;
throughput_csv = throughput.csv;
summary_csv = summary.csv;
energy_csv = energy.csv;
epoch_csv = epoch.csv;
dvfs_log = power_log;
output_dir = /Users/yash/Projects/wsc-noc-dvfs/final_paper_sims/flatfly;
run_name = flatfly_perf_target_inj0.6_cap0.7;

END Configuration File: /Users/yash/Projects/wsc-noc-dvfs/final_paper_sims/flatfly/flatfly_perf_target_inj0.6_cap0.7/config.cfg
 Flat Bufferfly 
 k = 4 n = 2 c = 4
 each switch - total radix =  10
 # of switches = 16
 # of channels = 96
 # of nodes ( size of network ) = 64
Class 0:
Packet latency average = 19.065
	minimum = 6
	maximum = 80
Network latency average = 19.065
	minimum = 6
	maximum = 80
Slowest packet = 119136
Flit latency average = 19.065
	minimum = 6
	maximum = 80
Slowest flit = 119136
Fragmentation average = 0
	minimum = 0
	maximum = 0
Injected packet rate average = 0.180136
	minimum = 0.1711 (at node 2)
	maximum = 0.1881 (at node 36)
Accepted packet rate average = 0.179808
	minimum = 0.168 (at node 17)
	maximum = 0.1897 (at node 27)
Injected flit rate average = 0.180136
	minimum = 0.1711 (at node 2)
	maximum = 0.1881 (at node 36)
Accepted flit rate average= 0.179808
	minimum = 0.168 (at node 17)
	maximum = 0.1897 (at node 27)
Injected packet length average = 1
Accepted packet length average = 1
Total in-flight flits = 210 (0 measured)
Buffer busy stall rate = 0
Buffer conflict stall rate = 0
Buffer full stall rate = 0
Buffer reserved stall rate = 0.0092625
Crossbar conflict stall rate = 1.48762
Class 1:
Packet latency average = 19.4415
	minimum = 6
	maximum = 77
Network latency average = 18.9877
	minimum = 6
	maximum = 75
Slowest packet = 163565
Flit latency average = 18.9877
	minimum = 6
	maximum = 75
Slowest flit = 163565
Fragmentation average = 0
	minimum = 0
	maximum = 0
Injected packet rate average = 0.419633
	minimum = 0.4089 (at node 18)
	maximum = 0.4322 (at node 45)
Accepted packet rate average = 0.418809
	minimum = 0.3994 (at node 31)
	maximum = 0.4391 (at node 28)
Injected flit rate average = 0.419633
	minimum = 0.4089 (at node 18)
	maximum = 0.4322 (at node 45)
Accepted flit rate average= 0.418809
	minimum = 0.3994 (at node 31)
	maximum = 0.4391 (at node 28)
Injected packet length average = 1
Accepted packet length average = 1
Total in-flight flits = 535 (0 measured)
Buffer busy stall rate = 0
Buffer conflict stall rate = 0
Buffer full stall rate = 0
Buffer reserved stall rate = 0.0221187
Crossbar conflict stall rate = 3.39899
latency change    = 1
throughput change = 1
latency change    = 1
throughput change = 1
DVFS epoch t=10000 total_power=0.768033 headroom=-0.0680334 avg_power=0.768033 domains{0:freq=1,power=0.768033} routers{0:freq=1,power=0.0480081, 1:freq=1,power=0.0480354, 2:freq=1,power=0.0480292, 3:freq=1,power=0.0479905, 4:freq=1,power=0.0479463, 5:freq=1,power=0.0479847, 6:freq=1,power=0.0480142, 7:freq=1,power=0.0479721, 8:freq=1,power=0.0479596, 9:freq=1,power=0.0479888, 10:freq=1,power=0.0480083, 11:freq=1,power=0.0480085, 12:freq=1,power=0.0480352, 13:freq=1,power=0.04801, 14:freq=1,power=0.0480208, 15:freq=1,power=0.0480217}
PERF_TARGET_DIFF: epoch=1 latency=37 target=50 latency_ok=1 budget=0.854214 headroom=-0.0680334
Class 0:
Packet latency average = 21.3497
	minimum = 6
	maximum = 127
Network latency average = 21.3497
	minimum = 6
	maximum = 127
Slowest packet = 759582
Flit latency average = 21.3497
	minimum = 6
	maximum = 127
Slowest flit = 759582
Fragmentation average = 0
	minimum = 0
	maximum = 0
Injected packet rate average = 0.179615
	minimum = 0.17395 (at node 2)
	maximum = 0.18435 (at node 62)
Accepted packet rate average = 0.179405
	minimum = 0.1741 (at node 21)
	maximum = 0.1853 (at node 27)
Injected flit rate average = 0.179615
	minimum = 0.17395 (at node 2)
	maximum = 0.18435 (at node 62)
Accepted flit rate average= 0.179405
	minimum = 0.1741 (at node 21)
	maximum = 0.1853 (at node 27)
Injected packet length average = 1
Accepted packet length average = 1
Total in-flight flits = 268 (0 measured)
Buffer busy stall rate = 0
Buffer conflict stall rate = 0
Buffer full stall rate = 0
Buffer reserved stall rate = 0.0225844
Crossbar conflict stall rate = 1.76673
Class 1:
Packet latency average = 21.7258
	minimum = 6
	maximum = 144
Network latency average = 21.2745
	minimum = 6
	maximum = 144
Slowest packet = 760566
Flit latency average = 21.2745
	minimum = 6
	maximum = 144
Slowest flit = 760566
Fragmentation average = 0
	minimum = 0
	maximum = 0
Injected packet rate average = 0.419726
	minimum = 0.4102 (at node 30)
	maximum = 0.42585 (at node 44)
Accepted packet rate average = 0.419232
	minimum = 0.40605 (at node 16)
	maximum = 0.43255 (at node 28)
Injected flit rate average = 0.419726
	minimum = 0.4102 (at node 30)
	maximum = 0.42585 (at node 44)
Accepted flit rate average= 0.419232
	minimum = 0.40605 (at node 16)
	maximum = 0.43255 (at node 28)
Injected packet length average = 1
Accepted packet length average = 1
Total in-flight flits = 637 (0 measured)
Buffer busy stall rate = 0
Buffer conflict stall rate = 0
Buffer full stall rate = 0
Buffer reserved stall rate = 0.0525
Crossbar conflict stall rate = 4.06215
latency change    = 0.107012
throughput change = 0.00224265
latency change    = 0.105143
throughput change = 0.00100817
DVFS epoch t=20000 total_power=0.719427 headroom=-0.0194266 avg_power=0.74373 domains{0:freq=0.841686,power=0.719427} routers{0:freq=0.841686,power=0.0427942, 1:freq=0.927107,power=0.046253, 2:freq=0.927107,power=0.0462552, 3:freq=0.841686,power=0.0428298, 4:freq=0.927107,power=0.0462532, 5:freq=0.841686,power=0.0428173, 6:freq=0.841686,power=0.0428097, 7:freq=0.841686,power=0.0428326, 8:freq=0.927107,power=0.0462184, 9:freq=0.927107,power=0.0462134, 10:freq=0.841686,power=0.0428648, 11:freq=0.927107,power=0.0462461, 12:freq=0.927107,power=0.0462591, 13:freq=0.927107,power=0.0462717, 14:freq=0.927107,power=0.0462648, 15:freq=0.927107,power=0.0462431}
PERF_TARGET_DIFF: epoch=2 latency=33 target=50 latency_ok=1 budget=0.958371 headroom=-0.0194266
Class 0:
Packet latency average = 22.223
	minimum = 6
	maximum = 100
Network latency average = 22.223
	minimum = 6
	maximum = 100
Slowest packet = 1094616
Flit latency average = 22.223
	minimum = 6
	maximum = 100
Slowest flit = 1094616
Fragmentation average = 0
	minimum = 0
	maximum = 0
Injected packet rate average = 0.178775
	minimum = 0.1696 (at node 25)
	maximum = 0.1874 (at node 31)
Accepted packet rate average = 0.178805
	minimum = 0.1649 (at node 34)
	maximum = 0.1875 (at node 41)
Injected flit rate average = 0.178775
	minimum = 0.1696 (at node 25)
	maximum = 0.1874 (at node 31)
Accepted flit rate average= 0.178805
	minimum = 0.1649 (at node 34)
	maximum = 0.1875 (at node 41)
Injected packet length average = 1
Accepted packet length average = 1
Total in-flight flits = 249 (0 measured)
Buffer busy stall rate = 0
Buffer conflict stall rate = 0
Buffer full stall rate = 0
Buffer reserved stall rate = 0.0259438
Crossbar conflict stall rate = 1.86423
Class 1:
Packet latency average = 22.5638
	minimum = 6
	maximum = 109
Network latency average = 22.1203
	minimum = 6
	maximum = 109
Slowest packet = 1094691
Flit latency average = 22.1203
	minimum = 6
	maximum = 109
Slowest flit = 1094691
Fragmentation average = 0
	minimum = 0
	maximum = 0
Injected packet rate average = 0.419759
	minimum = 0.4084 (at node 47)
	maximum = 0.4269 (at node 28)
Accepted packet rate average = 0.419823
	minimum = 0.4039 (at node 14)
	maximum = 0.4366 (at node 63)
Injected flit rate average = 0.419759
	minimum = 0.4084 (at node 47)
	maximum = 0.4269 (at node 28)
Accepted flit rate average= 0.419823
	minimum = 0.4039 (at node 14)
	maximum = 0.4366 (at node 63)
Injected packet length average = 1
Accepted packet length average = 1
Total in-flight flits = 603 (0 measured)
Buffer busy stall rate = 0
Buffer conflict stall rate = 6.25e-05
Buffer full stall rate = 0
Buffer reserved stall rate = 0.0606438
Crossbar conflict stall rate = 4.3128
latency change    = 0.039298
throughput change = 0.00335999
latency change    = 0.0371414
throughput change = 0.0014087
Warmed up ...Time used is 30000 cycles
DVFS epoch t=30000 total_power=0.756365 headroom=-0.0563648 avg_power=0.747942 domains{0:freq=0.979186,power=0.756365} routers{0:freq=0.979186,power=0.0495462, 1:freq=0.883349,power=0.045516, 2:freq=0.883349,power=0.0454969, 3:freq=0.979186,power=0.0494864, 4:freq=0.883349,power=0.045527, 5:freq=0.979186,power=0.0494915, 6:freq=0.979186,power=0.0495343, 7:freq=0.979186,power=0.0495255, 8:freq=0.883349,power=0.0455314, 9:freq=0.883349,power=0.0455708, 10:freq=0.979186,power=0.0494487, 11:freq=0.883349,power=0.045545, 12:freq=0.883349,power=0.0455787, 13:freq=0.979186,power=0.049464, 14:freq=0.883349,power=0.0455487, 15:freq=0.883349,power=0.0455537}
PERF_TARGET_DIFF: epoch=3 latency=0 target=50 latency_ok=1 budget=0.879218 headroom=-0.0563648
Class 0:
Packet latency average = 27.1478
	minimum = 6
	maximum = 215
Network latency average = 27.1478
	minimum = 6
	maximum = 215
Slowest packet = 1169501
Flit latency average = 27.1447
	minimum = 6
	maximum = 215
Slowest flit = 1169501
Fragmentation average = 0
	minimum = 0
	maximum = 0
Injected packet rate average = 0.180041
	minimum = 0.1711 (at node 8)
	maximum = 0.1887 (at node 46)
Accepted packet rate average = 0.179925
	minimum = 0.1665 (at node 48)
	maximum = 0.1887 (at node 57)
Injected flit rate average = 0.180041
	minimum = 0.1711 (at node 8)
	maximum = 0.1887 (at node 46)
Accepted flit rate average= 0.179925
	minimum = 0.1665 (at node 48)
	maximum = 0.1887 (at node 57)
Injected packet length average = 1
Accepted packet length average = 1
Total in-flight flits = 323 (323 measured)
Buffer busy stall rate = 0
Buffer conflict stall rate = 3.75e-05
Buffer full stall rate = 0
Buffer reserved stall rate = 0.0769
Crossbar conflict stall rate = 2.46523
Class 1:
Packet latency average = 27.4791
	minimum = 6
	maximum = 205
Network latency average = 27.0274
	minimum = 6
	maximum = 205
Slowest packet = 1172226
Flit latency average = 27.0228
	minimum = 6
	maximum = 205
Slowest flit = 1172226
Fragmentation average = 0
	minimum = 0
	maximum = 0
Injected packet rate average = 0.4204
	minimum = 0.4076 (at node 8)
	maximum = 0.4322 (at node 20)
Accepted packet rate average = 0.420144
	minimum = 0.4056 (at node 44)
	maximum = 0.4359 (at node 26)
Injected flit rate average = 0.4204
	minimum = 0.4076 (at node 8)
	maximum = 0.4322 (at node 20)
Accepted flit rate average= 0.420144
	minimum = 0.4056 (at node 44)
	maximum = 0.4359 (at node 26)
Injected packet length average = 1
Accepted packet length average = 1
Total in-flight flits = 760 (760 measured)
Buffer busy stall rate = 0
Buffer conflict stall rate = 0.0001625
Buffer full stall rate = 0
Buffer reserved stall rate = 0.18665
Crossbar conflict stall rate = 5.65621
latency change    = 0.181404
throughput change = 0.00622655
latency change    = 0.178873
throughput change = 0.000762388
DVFS epoch t=40000 total_power=0.727865 headroom=-0.0278652 avg_power=0.742923 domains{0:freq=0.851687,power=0.727865} routers{0:freq=0.851687,power=0.0452707, 1:freq=0.939609,power=0.0490445, 2:freq=0.939609,power=0.0489885, 3:freq=0.851687,power=0.0452108, 4:freq=0.851687,power=0.0453198, 5:freq=0.851687,power=0.0452055, 6:freq=0.763765,power=0.0415576, 7:freq=0.763765,power=0.0415733, 8:freq=0.851687,power=0.0452039, 9:freq=0.851687,power=0.0452498, 10:freq=0.763765,power=0.0415649, 11:freq=0.851687,power=0.0452652, 12:freq=0.939609,power=0.0489688, 13:freq=0.851687,power=0.0452103, 14:freq=0.939609,power=0.0489871, 15:freq=0.851687,power=0.0452447}
PERF_TARGET_DIFF: epoch=4 latency=76 target=50 latency_ok=0 budget=0.940289 headroom=-0.0278652
Class 0:
Packet latency average = 110.718
	minimum = 6
	maximum = 4836
Network latency average = 101.975
	minimum = 6
	maximum = 4836
Slowest packet = 1725406
Flit latency average = 101.89
	minimum = 6
	maximum = 4836
Slowest flit = 1725406
Fragmentation average = 0
	minimum = 0
	maximum = 0
Injected packet rate average = 0.177719
	minimum = 0.14955 (at node 63)
	maximum = 0.1854 (at node 45)
Accepted packet rate average = 0.174602
	minimum = 0.1661 (at node 48)
	maximum = 0.18225 (at node 21)
Injected flit rate average = 0.177719
	minimum = 0.14955 (at node 63)
	maximum = 0.1854 (at node 45)
Accepted flit rate average= 0.174602
	minimum = 0.1661 (at node 48)
	maximum = 0.18225 (at node 21)
Injected packet length average = 1
Accepted packet length average = 1
Total in-flight flits = 4252 (4252 measured)
Buffer busy stall rate = 1.98111
Buffer conflict stall rate = 1.45571
Buffer full stall rate = 0.509372
Buffer reserved stall rate = 1.09797
Crossbar conflict stall rate = 3.44151
Class 1:
Packet latency average = 113.185
	minimum = 6
	maximum = 5113
Network latency average = 76.7307
	minimum = 6
	maximum = 5113
Slowest packet = 1716685
Flit latency average = 76.6673
	minimum = 6
	maximum = 5113
Slowest flit = 1716685
Fragmentation average = 0
	minimum = 0
	maximum = 0
Injected packet rate average = 0.387327
	minimum = 0.3099 (at node 31)
	maximum = 0.42645 (at node 10)
Accepted packet rate average = 0.384545
	minimum = 0.37135 (at node 40)
	maximum = 0.39325 (at node 10)
Injected flit rate average = 0.387327
	minimum = 0.3099 (at node 31)
	maximum = 0.42645 (at node 10)
Accepted flit rate average= 0.384545
	minimum = 0.37135 (at node 40)
	maximum = 0.39325 (at node 10)
Injected packet length average = 1
Accepted packet length average = 1
Total in-flight flits = 4185 (4185 measured)
Buffer busy stall rate = 1.96511
Buffer conflict stall rate = 1.91517
Buffer full stall rate = 0.640897
Buffer reserved stall rate = 2.18532
Crossbar conflict stall rate = 7.49391
latency change    = 0.754803
throughput change = 0.0304891
latency change    = 0.757219
throughput change = 0.0925728
DVFS epoch t=50000 total_power=0.688538 headroom=0.0114624 avg_power=0.732046 domains{0:freq=1,power=0.688538} routers{0:freq=1,power=0.0520055, 1:freq=0.708333,power=0.0392669, 2:freq=0.633333,power=0.035868, 3:freq=1,power=0.0515677, 4:freq=0.725,power=0.039497, 5:freq=0.608333,power=0.0345535, 6:freq=1,power=0.0512975, 7:freq=1,power=0.0509908, 8:freq=0.75,power=0.0411892, 9:freq=0.725,power=0.0400222, 10:freq=1,power=0.0520464, 11:freq=0.641667,power=0.036022, 12:freq=0.708333,power=0.0385839, 13:freq=1,power=0.0512784, 14:freq=0.641667,power=0.0353432, 15:freq=0.733333,power=0.0390054}
PERF_TARGET_DIFF: epoch=5 latency=1522 target=50 latency_ok=0 budget=1 headroom=0.0114624
Class 0:
Packet latency average = 281.042
	minimum = 6
	maximum = 8787
Network latency average = 207.516
	minimum = 6
	maximum = 7364
Slowest packet = 1734306
Flit latency average = 207.382
	minimum = 6
	maximum = 7364
Slowest flit = 1953786
Fragmentation average = 0
	minimum = 0
	maximum = 0
Injected packet rate average = 0.178011
	minimum = 0.1494 (at node 63)
	maximum = 0.1852 (at node 22)
Accepted packet rate average = 0.17564
	minimum = 0.167333 (at node 48)
	maximum = 0.1811 (at node 12)
Injected flit rate average = 0.178011
	minimum = 0.1494 (at node 63)
	maximum = 0.1852 (at node 22)
Accepted flit rate average= 0.17564
	minimum = 0.167333 (at node 48)
	maximum = 0.1811 (at node 12)
Injected packet length average = 1
Accepted packet length average = 1
Total in-flight flits = 4822 (4822 measured)
Buffer busy stall rate = 4.13248
Buffer conflict stall rate = 3.391
Buffer full stall rate = 1.08879
Buffer reserved stall rate = 1.63872
Crossbar conflict stall rate = 4.16942
Class 1:
Packet latency average = 525.032
	minimum = 6
	maximum = 14053
Network latency average = 130.211
	minimum = 6
	maximum = 7300
Slowest packet = 1726759
Flit latency average = 130.114
	minimum = 6
	maximum = 7300
Slowest flit = 1954251
Fragmentation average = 0
	minimum = 0
	maximum = 0
Injected packet rate average = 0.344788
	minimum = 0.2066 (at node 31)
	maximum = 0.421733 (at node 16)
Accepted packet rate average = 0.342863
	minimum = 0.3314 (at node 40)
	maximum = 0.3519 (at node 10)
Injected flit rate average = 0.344788
	minimum = 0.2066 (at node 31)
	maximum = 0.421733 (at node 16)
Accepted flit rate average= 0.342863
	minimum = 0.3314 (at node 40)
	maximum = 0.3519 (at node 10)
Injected packet length average = 1
Accepted packet length average = 1
Total in-flight flits = 4333 (4333 measured)
Buffer busy stall rate = 3.14628
Buffer conflict stall rate = 3.40963
Buffer full stall rate = 1.09567
Buffer reserved stall rate = 2.66193
Crossbar conflict stall rate = 8.10916
latency change    = 0.606043
throughput change = 0.0059129
latency change    = 0.784423
throughput change = 0.121573
DVFS epoch t=60000 total_power=0.636609 headroom=0.0633906 avg_power=0.71614 domains{0:freq=0.580071,power=0.636609} routers{0:freq=0.580071,power=0.03326, 1:freq=0.684609,power=0.0380094, 2:freq=0.698843,power=0.0381552, 3:freq=0.718861,power=0.0385845, 4:freq=0.68194,power=0.0381153, 5:freq=1,power=0.0522721, 6:freq=0.704181,power=0.0382719, 7:freq=0.727758,power=0.0389549, 8:freq=0.524911,power=0.030154, 9:freq=0.728648,power=0.0391433, 10:freq=0.599199,power=0.033084, 11:freq=1,power=0.0507869, 12:freq=0.730427,power=0.0394864, 13:freq=1,power=0.0516544, 14:freq=0.740658,power=0.0389627, 15:freq=0.715747,power=0.0377145}
PERF_TARGET_DIFF: epoch=6 latency=2452 target=50 latency_ok=0 budget=1 headroom=0.0633906
Class 0:
Packet latency average = 350.207
	minimum = 6
	maximum = 12147
Network latency average = 231.147
	minimum = 6
	maximum = 10885
Slowest packet = 2017181
Flit latency average = 231.035
	minimum = 6
	maximum = 10885
Slowest flit = 2014634
Fragmentation average = 0
	minimum = 0
	maximum = 0
Injected packet rate average = 0.178276
	minimum = 0.144475 (at node 47)
	maximum = 0.1832 (at node 36)
Accepted packet rate average = 0.177097
	minimum = 0.171875 (at node 48)
	maximum = 0.181975 (at node 12)
Injected flit rate average = 0.178276
	minimum = 0.144475 (at node 47)
	maximum = 0.1832 (at node 36)
Accepted flit rate average= 0.177097
	minimum = 0.171875 (at node 48)
	maximum = 0.181975 (at node 12)
Injected packet length average = 1
Accepted packet length average = 1
Total in-flight flits = 3278 (3278 measured)
Buffer busy stall rate = 5.40453
Buffer conflict stall rate = 4.23353
Buffer full stall rate = 1.37178
Buffer reserved stall rate = 1.80684
Crossbar conflict stall rate = 4.33776
Class 1:
Packet latency average = 1219.75
	minimum = 6
	maximum = 19568
Network latency average = 143.825
	minimum = 6
	maximum = 7300
Slowest packet = 1726759
Flit latency average = 143.745
	minimum = 6
	maximum = 7300
Slowest flit = 1954251
Fragmentation average = 0
	minimum = 0
	maximum = 0
Injected packet rate average = 0.349231
	minimum = 0.15495 (at node 31)
	maximum = 0.4237 (at node 20)
Accepted packet rate average = 0.348036
	minimum = 0.34005 (at node 2)
	maximum = 0.354725 (at node 45)
Injected flit rate average = 0.349231
	minimum = 0.15495 (at node 31)
	maximum = 0.4237 (at node 20)
Accepted flit rate average= 0.348036
	minimum = 0.34005 (at node 2)
	maximum = 0.354725 (at node 45)
Injected packet length average = 1
Accepted packet length average = 1
Total in-flight flits = 3680 (3680 measured)
Buffer busy stall rate = 3.92181
Buffer conflict stall rate = 4.33626
Buffer full stall rate = 1.44021
Buffer reserved stall rate = 3.02449
Crossbar conflict stall rate = 8.86811
latency change    = 0.197499
throughput change = 0.00822803
latency change    = 0.569558
throughput change = 0.0148647
DVFS epoch t=70000 total_power=0.827551 headroom=-0.127551 avg_power=0.732055 domains{0:freq=1,power=0.827551} routers{0:freq=1,power=0.0548812, 1:freq=0.721019,power=0.0417163, 2:freq=1,power=0.0542719, 3:freq=1,power=0.053197, 4:freq=1,power=0.0545791, 5:freq=0.674522,power=0.0393512, 6:freq=1,power=0.0536254, 7:freq=1,power=0.053067, 8:freq=1,power=0.0555929, 9:freq=1,power=0.0555508, 10:freq=1,power=0.0553512, 11:freq=1,power=0.0541391, 12:freq=1,power=0.054488, 13:freq=0.718471,power=0.0414289, 14:freq=1,power=0.0534498, 15:freq=1,power=0.0528615}
PERF_TARGET_DIFF: epoch=7 latency=2020 target=50 latency_ok=0 budget=0.726676 headroom=-0.127551
Class 0:
Packet latency average = 421.496
	minimum = 6
	maximum = 12817
Network latency average = 262.416
	minimum = 6
	maximum = 10885
Slowest packet = 2017181
Flit latency average = 262.312
	minimum = 6
	maximum = 10885
Slowest flit = 2014634
Fragmentation average = 0
	minimum = 0
	maximum = 0
Injected packet rate average = 0.177666
	minimum = 0.14012 (at node 47)
	maximum = 0.18368 (at node 33)
Accepted packet rate average = 0.176288
	minimum = 0.1695 (at node 48)
	maximum = 0.18144 (at node 54)
Injected flit rate average = 0.177666
	minimum = 0.14012 (at node 47)
	maximum = 0.18368 (at node 33)
Accepted flit rate average= 0.176288
	minimum = 0.1695 (at node 48)
	maximum = 0.18144 (at node 54)
Injected packet length average = 1
Accepted packet length average = 1
Total in-flight flits = 4682 (4682 measured)
Buffer busy stall rate = 6.62277
Buffer conflict stall rate = 4.89853
Buffer full stall rate = 1.70027
Buffer reserved stall rate = 1.91432
Crossbar conflict stall rate = 4.3413
Class 1:
Packet latency average = 1606.02
	minimum = 6
	maximum = 31652
Network latency average = 159.986
	minimum = 6
	maximum = 7300
Slowest packet = 1726759
Flit latency average = 159.909
	minimum = 6
	maximum = 7300
Slowest flit = 1954251
Fragmentation average = 0
	minimum = 0
	maximum = 0
Injected packet rate average = 0.332193
	minimum = 0.12396 (at node 31)
	maximum = 0.42532 (at node 17)
Accepted packet rate average = 0.331158
	minimum = 0.32454 (at node 2)
	maximum = 0.33874 (at node 10)
Injected flit rate average = 0.332193
	minimum = 0.12396 (at node 31)
	maximum = 0.42532 (at node 17)
Accepted flit rate average= 0.331158
	minimum = 0.32454 (at node 2)
	maximum = 0.33874 (at node 10)
Injected packet length average = 1
Accepted packet length average = 1
Total in-flight flits = 3948 (3948 measured)
Buffer busy stall rate = 4.41648
Buffer conflict stall rate = 4.69997
Buffer full stall rate = 1.79042
Buffer reserved stall rate = 3.07394
Crossbar conflict stall rate = 8.59601
latency change    = 0.169133
throughput change = 0.00459166
latency change    = 0.240517
throughput change = 0.050967
DVFS epoch t=80000 total_power=0.757736 headroom=-0.0577362 avg_power=0.735266 domains{0:freq=0.513587,power=0.757736} routers{0:freq=0.513587,power=0.0308454, 1:freq=1,power=0.0537213, 2:freq=0.693614,power=0.0388007, 3:freq=1,power=0.0529649, 4:freq=0.647418,power=0.0381648, 5:freq=1,power=0.0548169, 6:freq=1,power=0.0544108, 7:freq=1,power=0.0539446, 8:freq=0.518342,power=0.0309345, 9:freq=1,power=0.0536184, 10:freq=0.730978,power=0.0404005, 11:freq=1,power=0.0527841, 12:freq=0.705163,power=0.0407002, 13:freq=1,power=0.0545915, 14:freq=1,power=0.053787, 15:freq=1,power=0.0532504}
PERF_TARGET_DIFF: epoch=8 latency=2413 target=50 latency_ok=0 budget=0.87628 headroom=-0.0577362
Class 0:
Packet latency average = 480.165
	minimum = 6
	maximum = 15638
Network latency average = 268.855
	minimum = 6
	maximum = 10885
Slowest packet = 2017181
Flit latency average = 268.767
	minimum = 6
	maximum = 10885
Slowest flit = 2014634
Fragmentation average = 0
	minimum = 0
	maximum = 0
Injected packet rate average = 0.178266
	minimum = 0.14065 (at node 47)
	maximum = 0.183417 (at node 2)
Accepted packet rate average = 0.177468
	minimum = 0.172733 (at node 48)
	maximum = 0.181783 (at node 54)
Injected flit rate average = 0.178266
	minimum = 0.14065 (at node 47)
	maximum = 0.183417 (at node 2)
Accepted flit rate average= 0.177468
	minimum = 0.172733 (at node 48)
	maximum = 0.181783 (at node 54)
Injected packet length average = 1
Accepted packet length average = 1
Total in-flight flits = 3323 (3323 measured)
Buffer busy stall rate = 6.93985
Buffer conflict stall rate = 5.21439
Buffer full stall rate = 1.76781
Buffer reserved stall rate = 2.00986
Crossbar conflict stall rate = 4.45424
Class 1:
Packet latency average = 2318.73
	minimum = 6
	maximum = 38334
Network latency average = 164.315
	minimum = 6
	maximum = 7300
Slowest packet = 1726759
Flit latency average = 164.25
	minimum = 6
	maximum = 7300
Slowest flit = 1954251
Fragmentation average = 0
	minimum = 0
	maximum = 0
Injected packet rate average = 0.338453
	minimum = 0.1033 (at node 31)
	maximum = 0.42495 (at node 17)
Accepted packet rate average = 0.337649
	minimum = 0.332083 (at node 42)
	maximum = 0.34385 (at node 45)
Injected flit rate average = 0.338453
	minimum = 0.1033 (at node 31)
	maximum = 0.42495 (at node 17)
Accepted flit rate average= 0.337649
	minimum = 0.332083 (at node 42)
	maximum = 0.34385 (at node 45)
Injected packet length average = 1
Accepted packet length average = 1
Total in-flight flits = 3700 (3700 measured)
Buffer busy stall rate = 4.74487
Buffer conflict stall rate = 5.13534
Buffer full stall rate = 1.91025
Buffer reserved stall rate = 3.31274
Crossbar conflict stall rate = 9.07902
latency change    = 0.122184
throughput change = 0.00665143
latency change    = 0.307368
throughput change = 0.0192253
DVFS epoch t=90000 total_power=0.864394 headroom=-0.164394 avg_power=0.749613 domains{0:freq=1,power=0.864394} routers{0:freq=1,power=0.0581064, 1:freq=1,power=0.0580378, 2:freq=1,power=0.0579766, 3:freq=1,power=0.0569906, 4:freq=1,power=0.0570173, 5:freq=0.659181,power=0.0401963, 6:freq=1,power=0.0563236, 7:freq=1,power=0.0556086, 8:freq=1,power=0.0572139, 9:freq=0.748349,power=0.0448552, 10:freq=1,power=0.0562208, 11:freq=1,power=0.05551, 12:freq=1,power=0.0568994, 13:freq=0.690225,power=0.0417726, 14:freq=1,power=0.0561875, 15:freq=1,power=0.0554773}
PERF_TARGET_DIFF: epoch=9 latency=2262 target=50 latency_ok=0 budget=0.647728 headroom=-0.164394
Class 0:
Packet latency average = 542.104
	minimum = 6
	maximum = 15932
Network latency average = 284.701
	minimum = 6
	maximum = 10885
Slowest packet = 2017181
Flit latency average = 284.62
	minimum = 6
	maximum = 10885
Slowest flit = 2014634
Fragmentation average = 0
	minimum = 0
	maximum = 0
Injected packet rate average = 0.177612
	minimum = 0.141371 (at node 63)
	maximum = 0.183314 (at node 2)
Accepted packet rate average = 0.176522
	minimum = 0.171457 (at node 48)
	maximum = 0.180114 (at node 54)
Injected flit rate average = 0.177612
	minimum = 0.141371 (at node 63)
	maximum = 0.183314 (at node 2)
Accepted flit rate average= 0.176522
	minimum = 0.171457 (at node 48)
	maximum = 0.180114 (at node 54)
Injected packet length average = 1
Accepted packet length average = 1
Total in-flight flits = 5152 (5152 measured)
Buffer busy stall rate = 7.66439
Buffer conflict stall rate = 5.5426
Buffer full stall rate = 1.96567
Buffer reserved stall rate = 2.07088
Crossbar conflict stall rate = 4.40229
Class 1:
Packet latency average = 2647.85
	minimum = 6
	maximum = 50230
Network latency average = 173.176
	minimum = 6
	maximum = 7300
Slowest packet = 1726759
Flit latency average = 173.115
	minimum = 6
	maximum = 7300
Slowest flit = 1954251
Fragmentation average = 0
	minimum = 0
	maximum = 0
Injected packet rate average = 0.328623
	minimum = 0.0885429 (at node 31)
	maximum = 0.422886 (at node 17)
Accepted packet rate average = 0.327932
	minimum = 0.323271 (at node 2)
	maximum = 0.333214 (at node 26)
Injected flit rate average = 0.328623
	minimum = 0.0885429 (at node 31)
	maximum = 0.422886 (at node 17)
Accepted flit rate average= 0.327932
	minimum = 0.323271 (at node 2)
	maximum = 0.333214 (at node 26)
Injected packet length average = 1
Accepted packet length average = 1
Total in-flight flits = 3735 (3735 measured)
Buffer busy stall rate = 5.04084
Buffer conflict stall rate = 5.30646
Buffer full stall rate = 2.1099
Buffer reserved stall rate = 3.37119
Crossbar conflict stall rate = 8.84238
latency change    = 0.114257
throughput change = 0.00535857
latency change    = 0.1243
throughput change = 0.0296321
DVFS epoch t=100000 total_power=0.807724 headroom=-0.107724 avg_power=0.755424 domains{0:freq=0.518414,power=0.807724} routers{0:freq=0.518414,power=0.032374, 1:freq=1,power=0.056216, 2:freq=0.664306,power=0.0390808, 3:freq=1,power=0.0553766, 4:freq=0.623938,power=0.0384163, 5:freq=1,power=0.0571526, 6:freq=1,power=0.0566438, 7:freq=1,power=0.0563241, 8:freq=0.662181,power=0.0404852, 9:freq=1,power=0.0572596, 10:freq=1,power=0.0568839, 11:freq=1,power=0.0563893, 12:freq=0.673513,power=0.039295, 13:freq=1,power=0.0557528, 14:freq=1,power=0.0552897, 15:freq=1,power=0.0547843}
PERF_TARGET_DIFF: epoch=10 latency=2582 target=50 latency_ok=0 budget=0.769163 headroom=-0.107724
Class 0:
Packet latency average = 618.548
	minimum = 6
	maximum = 17576
Network latency average = 292.651
	minimum = 6
	maximum = 10885
Slowest packet = 2017181
Flit latency average = 292.578
	minimum = 6
	maximum = 10885
Slowest flit = 2014634
Fragmentation average = 0
	minimum = 0
	maximum = 0
Injected packet rate average = 0.178834
	minimum = 0.156663 (at node 63)
	maximum = 0.182562 (at node 2)
Accepted packet rate average = 0.178103
	minimum = 0.175088 (at node 36)
	maximum = 0.180913 (at node 24)
Injected flit rate average = 0.178834
	minimum = 0.156663 (at node 63)
	maximum = 0.182562 (at node 2)
Accepted flit rate average= 0.178103
	minimum = 0.175088 (at node 36)
	maximum = 0.180913 (at node 24)
Injected packet length average = 1
Accepted packet length average = 1
Total in-flight flits = 4010 (4010 measured)
Buffer busy stall rate = 7.44229
Buffer conflict stall rate = 5.68642
Buffer full stall rate = 1.90811
Buffer reserved stall rate = 2.1282
Crossbar conflict stall rate = 4.73641
Class 1:
Packet latency average = 3383.96
	minimum = 6
	maximum = 60238
Network latency average = 181.372
	minimum = 6
	maximum = 8436
Slowest packet = 1726759
Flit latency average = 181.316
	minimum = 6
	maximum = 8436
Slowest flit = 3220809
Fragmentation average = 0
	minimum = 0
	maximum = 0
Injected packet rate average = 0.32798
	minimum = 0.077475 (at node 31)
	maximum = 0.422 (at node 48)
Accepted packet rate average = 0.327198
	minimum = 0.322088 (at node 2)
	maximum = 0.331112 (at node 53)
Injected flit rate average = 0.32798
	minimum = 0.077475 (at node 31)
	maximum = 0.422 (at node 48)
Accepted flit rate average= 0.327198
	minimum = 0.322088 (at node 2)
	maximum = 0.331112 (at node 53)
Injected packet length average = 1
Accepted packet length average = 1
Total in-flight flits = 4642 (4642 measured)
Buffer busy stall rate = 4.99008
Buffer conflict stall rate = 5.48503
Buffer full stall rate = 2.0691
Buffer reserved stall rate = 3.45289
Crossbar conflict stall rate = 9.35049
latency change    = 0.123586
throughput change = 0.00887686
latency change    = 0.217527
throughput change = 0.0022435
DVFS epoch t=110000 total_power=0.754596 headroom=-0.0545964 avg_power=0.755349 domains{0:freq=1,power=0.754596} routers{0:freq=1,power=0.0591513, 1:freq=0.675702,power=0.0424248, 2:freq=0.687318,power=0.0424565, 3:freq=0.730397,power=0.0441152, 4:freq=1,power=0.0584358, 5:freq=0.622943,power=0.0393796, 6:freq=0.708132,power=0.0429615, 7:freq=0.708132,power=0.0426551, 8:freq=1,power=0.0588939, 9:freq=0.657793,power=0.0414239, 10:freq=0.669409,power=0.0414592, 11:freq=0.742014,power=0.0446119, 12:freq=1,power=0.0592682, 13:freq=0.739109,power=0.0459619, 14:freq=0.745402,power=0.045877, 15:freq=0.74879,power=0.0455207}
PERF_TARGET_DIFF: epoch=11 latency=2134 target=50 latency_ok=0 budget=0.883008 headroom=-0.0545964
Class 0:
Packet latency average = 638.042
	minimum = 6
	maximum = 17576
Network latency average = 295.612
	minimum = 6
	maximum = 10885
Slowest packet = 2017181
Flit latency average = 295.546
	minimum = 6
	maximum = 10885
Slowest flit = 2014634
Fragmentation average = 0
	minimum = 0
	maximum = 0
Injected packet rate average = 0.178638
	minimum = 0.155256 (at node 47)
	maximum = 0.182733 (at node 57)
Accepted packet rate average = 0.178036
	minimum = 0.175144 (at node 48)
	maximum = 0.180622 (at node 53)
Injected flit rate average = 0.178638
	minimum = 0.155256 (at node 47)
	maximum = 0.182733 (at node 57)
Accepted flit rate average= 0.178036
	minimum = 0.175144 (at node 48)
	maximum = 0.180622 (at node 53)
Injected packet length average = 1
Accepted packet length average = 1
Total in-flight flits = 3736 (3736 measured)
Buffer busy stall rate = 7.73452
Buffer conflict stall rate = 5.82466
Buffer full stall rate = 2
Buffer reserved stall rate = 2.12484
Crossbar conflict stall rate = 4.70708
Class 1:
Packet latency average = 3845.98
	minimum = 6
	maximum = 64566
Network latency average = 182.593
	minimum = 6
	maximum = 8436
Slowest packet = 1726759
Flit latency average = 182.543
	minimum = 6
	maximum = 8436
Slowest flit = 3220809
Fragmentation average = 0
	minimum = 0
	maximum = 0
Injected packet rate average = 0.328536
	minimum = 0.0688667 (at node 31)
	maximum = 0.422089 (at node 26)
Accepted packet rate average = 0.328007
	minimum = 0.324 (at node 2)
	maximum = 0.333233 (at node 26)
Injected flit rate average = 0.328536
	minimum = 0.0688667 (at node 31)
	maximum = 0.422089 (at node 26)
Accepted flit rate average= 0.328007
	minimum = 0.324 (at node 2)
	maximum = 0.333233 (at node 26)
Injected packet length average = 1
Accepted packet length average = 1
Total in-flight flits = 3675 (3675 measured)
Buffer busy stall rate = 5.17223
Buffer conflict stall rate = 5.65842
Buffer full stall rate = 2.17719
Buffer reserved stall rate = 3.45262
Crossbar conflict stall rate = 9.38117
latency change    = 0.0305535
throughput change = 0.000376528
latency change    = 0.120132
throughput change = 0.00246564
DVFS epoch t=120000 total_power=0.893894 headroom=-0.193894 avg_power=0.766894 domains{0:freq=0.70638,power=0.893894} routers{0:freq=0.70638,power=0.0449356, 1:freq=1,power=0.0605454, 2:freq=1,power=0.0596644, 3:freq=1,power=0.0587273, 4:freq=0.696615,power=0.0442136, 5:freq=1,power=0.0601371, 6:freq=1,power=0.0591064, 7:freq=1,power=0.05857, 8:freq=0.701172,power=0.0445211, 9:freq=1,power=0.0603063, 10:freq=1,power=0.0595363, 11:freq=1,power=0.0587521, 12:freq=0.728516,power=0.0461177, 13:freq=1,power=0.0604422, 14:freq=1,power=0.0594371, 15:freq=1,power=0.0588817}
PERF_TARGET_DIFF: epoch=12 latency=2250 target=50 latency_ok=0 budget=0.584512 headroom=-0.193894
Class 0:
Packet latency average = 664.918
	minimum = 6
	maximum = 17576
Network latency average = 296.736
	minimum = 6
	maximum = 10885
Slowest packet = 2017181
Flit latency average = 296.676
	minimum = 6
	maximum = 10885
Slowest flit = 2014634
Fragmentation average = 0
	minimum = 0
	maximum = 0
Injected packet rate average = 0.178727
	minimum = 0.15683 (at node 47)
	maximum = 0.18239 (at node 33)
Accepted packet rate average = 0.178106
	minimum = 0.17557 (at node 36)
	maximum = 0.18067 (at node 12)
Injected flit rate average = 0.178727
	minimum = 0.15683 (at node 47)
	maximum = 0.18239 (at node 33)
Accepted flit rate average= 0.178106
	minimum = 0.17557 (at node 36)
	maximum = 0.18067 (at node 12)
Injected packet length average = 1
Accepted packet length average = 1
Total in-flight flits = 4244 (4244 measured)
Buffer busy stall rate = 7.8757
Buffer conflict stall rate = 5.92759
Buffer full stall rate = 2.02752
Buffer reserved stall rate = 2.15754
Crossbar conflict stall rate = 4.70186
Class 1:
Packet latency average = 4385.49
	minimum = 6
	maximum = 73701
Network latency average = 184.379
	minimum = 6
	maximum = 8436
Slowest packet = 1726759
Flit latency average = 184.333
	minimum = 6
	maximum = 8436
Slowest flit = 3220809
Fragmentation average = 0
	minimum = 0
	maximum = 0
Injected packet rate average = 0.328908
	minimum = 0.06198 (at node 31)
	maximum = 0.42196 (at node 48)
Accepted packet rate average = 0.328414
	minimum = 0.32339 (at node 42)
	maximum = 0.33152 (at node 53)
Injected flit rate average = 0.328908
	minimum = 0.06198 (at node 31)
	maximum = 0.42196 (at node 48)
Accepted flit rate average= 0.328414
	minimum = 0.32339 (at node 42)
	maximum = 0.33152 (at node 53)
Injected packet length average = 1
Accepted packet length average = 1
Total in-flight flits = 3785 (3785 measured)
Buffer busy stall rate = 5.29625
Buffer conflict stall rate = 5.80965
Buffer full stall rate = 2.24167
Buffer reserved stall rate = 3.51875
Crossbar conflict stall rate = 9.40597
latency change    = 0.0404189
throughput change = 0.000391075
latency change    = 0.123022
throughput change = 0.00124166
DVFS epoch t=130000 total_power=0.898921 headroom=-0.198921 avg_power=0.77705 domains{0:freq=1,power=0.898921} routers{0:freq=1,power=0.0609361, 1:freq=0.599684,power=0.0395942, 2:freq=1,power=0.0603313, 3:freq=1,power=0.0599642, 4:freq=1,power=0.06172, 5:freq=0.673259,power=0.0439732, 6:freq=1,power=0.0612704, 7:freq=1,power=0.060622, 8:freq=1,power=0.0611527, 9:freq=0.630538,power=0.0413918, 10:freq=1,power=0.0606861, 11:freq=1,power=0.0602126, 12:freq=1,power=0.0612773, 13:freq=0.696994,power=0.0451035, 14:freq=1,power=0.0606406, 15:freq=1,power=0.0600446}
PERF_TARGET_DIFF: epoch=13 latency=2053 target=50 latency_ok=0 budget=0.573742 headroom=-0.198921
Class 0:
Packet latency average = 691.611
	minimum = 6
	maximum = 17576
Network latency average = 301.34
	minimum = 6
	maximum = 10885
Slowest packet = 2017181
Flit latency average = 301.285
	minimum = 6
	maximum = 10885
Slowest flit = 2014634
Fragmentation average = 0
	minimum = 0
	maximum = 0
Injected packet rate average = 0.178662
	minimum = 0.157909 (at node 47)
	maximum = 0.182291 (at node 33)
Accepted packet rate average = 0.178033
	minimum = 0.174345 (at node 48)
	maximum = 0.180645 (at node 12)
Injected flit rate average = 0.178662
	minimum = 0.157909 (at node 47)
	maximum = 0.182291 (at node 33)
Accepted flit rate average= 0.178033
	minimum = 0.174345 (at node 48)
	maximum = 0.180645 (at node 12)
Injected packet length average = 1
Accepted packet length average = 1
Total in-flight flits = 4704 (4704 measured)
Buffer busy stall rate = 8.23728
Buffer conflict stall rate = 6.0378
Buffer full stall rate = 2.13928
Buffer reserved stall rate = 2.19699
Crossbar conflict stall rate = 4.65993
Class 1:
Packet latency average = 4743.6
	minimum = 6
	maximum = 83157
Network latency average = 186.792
	minimum = 6
	maximum = 8436
Slowest packet = 1726759
Flit latency average = 186.75
	minimum = 6
	maximum = 8436
Slowest flit = 3220809
Fragmentation average = 0
	minimum = 0
	maximum = 0
Injected packet rate average = 0.326749
	minimum = 0.0563455 (at node 31)
	maximum = 0.421327 (at node 32)
Accepted packet rate average = 0.326291
	minimum = 0.322627 (at node 42)
	maximum = 0.329655 (at node 53)
Injected flit rate average = 0.326749
	minimum = 0.0563455 (at node 31)
	maximum = 0.421327 (at node 32)
Accepted flit rate average= 0.326291
	minimum = 0.322627 (at node 42)
	maximum = 0.329655 (at node 53)
Injected packet length average = 1
Accepted packet length average = 1
Total in-flight flits = 3859 (3859 measured)
Buffer busy stall rate = 5.53759
Buffer conflict stall rate = 5.89547
Buffer full stall rate = 2.32474
Buffer reserved stall rate = 3.55557
Crossbar conflict stall rate = 9.31318
latency change    = 0.0385967
throughput change = 0.000412335
latency change    = 0.0754921
throughput change = 0.00650745
DVFS epoch t=140000 total_power=0.932207 headroom=-0.232207 avg_power=0.788133 domains{0:freq=0.745723,power=0.932207} routers{0:freq=0.745723,power=0.0485903, 1:freq=1,power=0.0625239, 2:freq=1,power=0.0620071, 3:freq=1,power=0.0613247, 4:freq=0.57465,power=0.038402, 5:freq=1,power=0.0614882, 6:freq=1,power=0.0610313, 7:freq=1,power=0.0605806, 8:freq=0.700622,power=0.046106, 9:freq=1,power=0.0625203, 10:freq=1,power=0.0621325, 11:freq=1,power=0.0615727, 12:freq=1,power=0.0615933, 13:freq=1,power=0.0616311, 14:freq=1,power=0.060665, 15:freq=1,power=0.0600381}
PERF_TARGET_DIFF: epoch=14 latency=2316 target=50 latency_ok=0 budget=0.502414 headroom=-0.232207
Class 0:
Packet latency average = 714.03
	minimum = 6
	maximum = 17576
Network latency average = 307.221
	minimum = 6
	maximum = 10885
Slowest packet = 2017181
Flit latency average = 307.169
	minimum = 6
	maximum = 10885
Slowest flit = 2014634
Fragmentation average = 0
	minimum = 0
	maximum = 0
Injected packet rate average = 0.178985
	minimum = 0.158442 (at node 47)
	maximum = 0.182275 (at node 33)
Accepted packet rate average = 0.17843
	minimum = 0.175067 (at node 48)
	maximum = 0.180883 (at node 12)
Injected flit rate average = 0.178985
	minimum = 0.158442 (at node 47)
	maximum = 0.182275 (at node 33)
Accepted flit rate average= 0.17843
	minimum = 0.175067 (at node 48)
	maximum = 0.180883 (at node 12)
Injected packet length average = 1
Accepted packet length average = 1
Total in-flight flits = 4528 (4528 measured)
Buffer busy stall rate = 8.10126
Buffer conflict stall rate = 6.11953
Buffer full stall rate = 2.0879
Buffer reserved stall rate = 2.24206
Crossbar conflict stall rate = 4.80748
Class 1:
Packet latency average = 5353.17
	minimum = 6
	maximum = 101098
Network latency average = 192.73
	minimum = 6
	maximum = 8436
Slowest packet = 1726759
Flit latency average = 192.689
	minimum = 6
	maximum = 8436
Slowest flit = 3220809
Fragmentation average = 0
	minimum = 0
	maximum = 0
Injected packet rate average = 0.324142
	minimum = 0.0528917 (at node 63)
	maximum = 0.421142 (at node 17)
Accepted packet rate average = 0.32363
	minimum = 0.319408 (at node 42)
	maximum = 0.3279 (at node 24)
Injected flit rate average = 0.324142
	minimum = 0.0528917 (at node 63)
	maximum = 0.421142 (at node 17)
Accepted flit rate average= 0.32363
	minimum = 0.319408 (at node 42)
	maximum = 0.3279 (at node 24)
Injected packet length average = 1
Accepted packet length average = 1
Total in-flight flits = 4570 (4570 measured)
Buffer busy stall rate = 5.47846
Buffer conflict stall rate = 5.99358
Buffer full stall rate = 2.26482
Buffer reserved stall rate = 3.60176
Crossbar conflict stall rate = 9.46528
latency change    = 0.0313974
throughput change = 0.00222804
latency change    = 0.113871
throughput change = 0.00822308
Average latency for class 1 exceeded 5000 cycles. Aborting simulation.
Too many sample periods needed to converge
Simulation unstable, ending ...
Total run time 170.003
1.85573e-13
1.01182e-14
8.2655e-14
1.09233e-13
1.89983e-13
5.84568e-13
3.37458e-13
1.11201e-12
8.52002e-14
1.49959e-12
4.63932e-14
1.01182e-14
2.06637e-14
1.56046e-14
1.89983e-13
8.35097e-14
8.43644e-14
3.57857e-13
2.13e-14
4.50637e-13
2.31966e-14
1.01182e-14
3.3062e-13
4.83744e-13
1.89983e-13
2.5888e-12
1.34983e-12
4.12861e-12
3.40801e-13
4.97629e-12
2.8975e-11
4.62959e-11
1.85573e-13
1.01182e-14
8.2655e-14
1.09233e-13
1.89983e-13
5.84568e-13
3.37458e-13
1.11201e-12
8.52002e-14
1.49959e-12
4.63932e-14
1.01182e-14
2.06637e-14
1.56046e-14
1.89983e-13
8.35097e-14
8.43644e-14
3.57857e-13
2.13e-14
4.50637e-13
2.31966e-14
1.01182e-14
3.3062e-13
4.83744e-13
1.89983e-13
2.5888e-12
1.34983e-12
4.12861e-12
3.40801e-13
4.97629e-12
2.8975e-11
4.63185e-11
1.85573e-13
1.01182e-14
8.2655e-14
1.09233e-13
1.89983e-13
5.84568e-13
3.37458e-13
1.11201e-12
8.52002e-14
1.49959e-12
4.63932e-14
1.01182e-14
2.06637e-14
1.56046e-14
1.89983e-13
8.35097e-14
8.43644e-14
3.57857e-13
2.13e-14
4.50637e-13
2.31966e-14
1.01182e-14
3.3062e-13
4.83744e-13
1.89983e-13
2.5888e-12
1.34983e-12
4.12861e-12
3.40801e-13
4.97629e-12
2.8975e-11
4.63135e-11
1.85573e-13
1.01182e-14
8.2655e-14
1.09233e-13
1.89983e-13
5.84568e-13
3.37458e-13
1.11201e-12
8.52002e-14
1.49959e-12
4.63932e-14
1.01182e-14
2.06637e-14
1.56046e-14
1.89983e-13
8.35097e-14
8.43644e-14
3.57857e-13
2.13e-14
4.50637e-13
2.31966e-14
1.01182e-14
3.3062e-13
4.83744e-13
1.89983e-13
2.5888e-12
1.34983e-12
4.12861e-12
3.40801e-13
4.97629e-12
2.8975e-11
4.62818e-11
1.85573e-13
1.01182e-14
8.2655e-14
1.09233e-13
1.89983e-13
5.84568e-13
3.37458e-13
1.11201e-12
8.52002e-14
1.49959e-12
4.63932e-14
1.01182e-14
2.06637e-14
1.56046e-14
1.89983e-13
8.35097e-14
8.43644e-14
3.57857e-13
2.13e-14
4.50637e-13
2.31966e-14
1.01182e-14
3.3062e-13
4.83744e-13
1.89983e-13
2.5888e-12
1.34983e-12
4.12861e-12
3.40801e-13
4.97629e-12
2.8975e-11
4.62462e-11
1.85573e-13
1.01182e-14
8.2655e-14
1.09233e-13
1.89983e-13
5.84568e-13
3.37458e-13
1.11201e-12
8.52002e-14
1.49959e-12
4.63932e-14
1.01182e-14
2.06637e-14
1.56046e-14
1.89983e-13
8.35097e-14
8.43644e-14
3.57857e-13
2.13e-14
4.50637e-13
2.31966e-14
1.01182e-14
3.3062e-13
4.83744e-13
1.89983e-13
2.5888e-12
1.34983e-12
4.12861e-12
3.40801e-13
4.97629e-12
2.8975e-11
4.62771e-11
1.85573e-13
1.01182e-14
8.2655e-14
1.09233e-13
1.89983e-13
5.84568e-13
3.37458e-13
1.11201e-12
8.52002e-14
1.49959e-12
4.63932e-14
1.01182e-14
2.06637e-14
1.56046e-14
1.89983e-13
8.35097e-14
8.43644e-14
3.57857e-13
2.13e-14
4.50637e-13
2.31966e-14
1.01182e-14
3.3062e-13
4.83744e-13
1.89983e-13
2.5888e-12
1.34983e-12
4.12861e-12
3.40801e-13
4.97629e-12
2.8975e-11
4.6301e-11
1.85573e-13
1.01182e-14
8.2655e-14
1.09233e-13
1.89983e-13
5.84568e-13
3.37458e-13
1.11201e-12
8.52002e-14
1.49959e-12
4.63932e-14
1.01182e-14
2.06637e-14
1.56046e-14
1.89983e-13
8.35097e-14
8.43644e-14
3.57857e-13
2.13e-14
4.50637e-13
2.31966e-14
1.01182e-14
3.3062e-13
4.83744e-13
1.89983e-13
2.5888e-12
1.34983e-12
4.12861e-12
3.40801e-13
4.97629e-12
2.8975e-11
4.62667e-11
1.85573e-13
1.01182e-14
8.2655e-14
1.09233e-13
1.89983e-13
5.84568e-13
3.37458e-13
1.11201e-12
8.52002e-14
1.49959e-12
4.63932e-14
1.01182e-14
2.06637e-14
1.56046e-14
1.89983e-13
8.35097e-14
8.43644e-14
3.57857e-13
2.13e-14
4.50637e-13
2.31966e-14
1.01182e-14
3.3062e-13
4.83744e-13
1.89983e-13
2.5888e-12
1.34983e-12
4.12861e-12
3.40801e-13
4.97629e-12
2.8975e-11
4.62568e-11
1.85573e-13
1.01182e-14
8.2655e-14
1.09233e-13
1.89983e-13
5.84568e-13
3.37458e-13
1.11201e-12
8.52002e-14
1.49959e-12
4.63932e-14
1.01182e-14
2.06637e-14
1.56046e-14
1.89983e-13
8.35097e-14
8.43644e-14
3.57857e-13
2.13e-14
4.50637e-13
2.31966e-14
1.01182e-14
3.3062e-13
4.83744e-13
1.89983e-13
2.5888e-12
1.34983e-12
4.12861e-12
3.40801e-13
4.97629e-12
2.8975e-11
4.62806e-11
1.85573e-13
1.01182e-14
8.2655e-14
1.09233e-13
1.89983e-13
5.84568e-13
3.37458e-13
1.11201e-12
8.52002e-14
1.49959e-12
4.63932e-14
1.01182e-14
2.06637e-14
1.56046e-14
1.89983e-13
8.35097e-14
8.43644e-14
3.57857e-13
2.13e-14
4.50637e-13
2.31966e-14
1.01182e-14
3.3062e-13
4.83744e-13
1.89983e-13
2.5888e-12
1.34983e-12
4.12861e-12
3.40801e-13
4.97629e-12
2.8975e-11
4.62962e-11
1.85573e-13
1.01182e-14
8.2655e-14
1.09233e-13
1.89983e-13
5.84568e-13
3.37458e-13
1.11201e-12
8.52002e-14
1.49959e-12
4.63932e-14
1.01182e-14
2.06637e-14
1.56046e-14
1.89983e-13
8.35097e-14
8.43644e-14
3.57857e-13
2.13e-14
4.50637e-13
2.31966e-14
1.01182e-14
3.3062e-13
4.83744e-13
1.89983e-13
2.5888e-12
1.34983e-12
4.12861e-12
3.40801e-13
4.97629e-12
2.8975e-11
4.62965e-11
1.85573e-13
1.01182e-14
8.2655e-14
1.09233e-13
1.89983e-13
5.84568e-13
3.37458e-13
1.11201e-12
8.52002e-14
1.49959e-12
4.63932e-14
1.01182e-14
2.06637e-14
1.56046e-14
1.89983e-13
8.35097e-14
8.43644e-14
3.57857e-13
2.13e-14
4.50637e-13
2.31966e-14
1.01182e-14
3.3062e-13
4.83744e-13
1.89983e-13
2.5888e-12
1.34983e-12
4.12861e-12
3.40801e-13
4.97629e-12
2.8975e-11
4.63183e-11
1.85573e-13
1.01182e-14
8.2655e-14
1.09233e-13
1.89983e-13
5.84568e-13
3.37458e-13
1.11201e-12
8.52002e-14
1.49959e-12
4.63932e-14
1.01182e-14
2.06637e-14
1.56046e-14
1.89983e-13
8.35097e-14
8.43644e-14
3.57857e-13
2.13e-14
4.50637e-13
2.31966e-14
1.01182e-14
3.3062e-13
4.83744e-13
1.89983e-13
2.5888e-12
1.34983e-12
4.12861e-12
3.40801e-13
4.97629e-12
2.8975e-11
4.62977e-11
1.85573e-13
1.01182e-14
8.2655e-14
1.09233e-13
1.89983e-13
5.84568e-13
3.37458e-13
1.11201e-12
8.52002e-14
1.49959e-12
4.63932e-14
1.01182e-14
2.06637e-14
1.56046e-14
1.89983e-13
8.35097e-14
8.43644e-14
3.57857e-13
2.13e-14
4.50637e-13
2.31966e-14
1.01182e-14
3.3062e-13
4.83744e-13
1.89983e-13
2.5888e-12
1.34983e-12
4.12861e-12
3.40801e-13
4.97629e-12
2.8975e-11
4.63066e-11
1.85573e-13
1.01182e-14
8.2655e-14
1.09233e-13
1.89983e-13
5.84568e-13
3.37458e-13
1.11201e-12
8.52002e-14
1.49959e-12
4.63932e-14
1.01182e-14
2.06637e-14
1.56046e-14
1.89983e-13
8.35097e-14
8.43644e-14
3.57857e-13
2.13e-14
4.50637e-13
2.31966e-14
1.01182e-14
3.3062e-13
4.83744e-13
1.89983e-13
2.5888e-12
1.34983e-12
4.12861e-12
3.40801e-13
4.97629e-12
2.8975e-11
4.63072e-11
1.85573e-13
1.01182e-14
8.2655e-14
1.09233e-13
1.89983e-13
5.84568e-13
3.37458e-13
1.11201e-12
8.52002e-14
1.49959e-12
4.63932e-14
1.01182e-14
2.06637e-14
1.56046e-14
1.89983e-13
8.35097e-14
8.43644e-14
3.57857e-13
2.13e-14
4.50637e-13
2.31966e-14
1.01182e-14
3.3062e-13
4.83744e-13
1.89983e-13
2.5888e-12
1.34983e-12
4.12861e-12
3.40801e-13
4.97629e-12
3.01535e-11
4.88183e-11
1.85573e-13
1.01182e-14
8.2655e-14
1.09233e-13
1.89983e-13
5.84568e-13
3.37458e-13
1.11201e-12
8.52002e-14
1.49959e-12
4.63932e-14
1.01182e-14
2.06637e-14
1.56046e-14
1.89983e-13
8.35097e-14
8.43644e-14
3.57857e-13
2.13e-14
4.50637e-13
2.31966e-14
1.01182e-14
3.3062e-13
4.83744e-13
1.89983e-13
2.5888e-12
1.34983e-12
4.12861e-12
3.40801e-13
4.97629e-12
3.01535e-11
4.80441e-11
1.85573e-13
1.01182e-14
8.2655e-14
1.09233e-13
1.89983e-13
5.84568e-13
3.37458e-13
1.11201e-12
8.52002e-14
1.49959e-12
4.63932e-14
1.01182e-14
2.06637e-14
1.56046e-14
1.89983e-13
8.35097e-14
8.43644e-14
3.57857e-13
2.13e-14
4.50637e-13
2.31966e-14
1.01182e-14
3.3062e-13
4.83744e-13
1.89983e-13
2.5888e-12
1.34983e-12
4.12861e-12
3.40801e-13
4.97629e-12
3.01535e-11
4.8046e-11
1.85573e-13
1.01182e-14
8.2655e-14
1.09233e-13
1.89983e-13
5.84568e-13
3.37458e-13
1.11201e-12
8.52002e-14
1.49959e-12
4.63932e-14
1.01182e-14
2.06637e-14
1.56046e-14
1.89983e-13
8.35097e-14
8.43644e-14
3.57857e-13
2.13e-14
4.50637e-13
2.31966e-14
1.01182e-14
3.3062e-13
4.83744e-13
1.89983e-13
2.5888e-12
1.34983e-12
4.12861e-12
3.40801e-13
4.97629e-12
3.01535e-11
4.88525e-11
1.85573e-13
1.01182e-14
8.2655e-14
1.09233e-13
1.89983e-13
5.84568e-13
3.37458e-13
1.11201e-12
8.52002e-14
1.49959e-12
4.63932e-14
1.01182e-14
2.06637e-14
1.56046e-14
1.89983e-13
8.35097e-14
8.43644e-14
3.57857e-13
2.13e-14
4.50637e-13
2.31966e-14
1.01182e-14
3.3062e-13
4.83744e-13
1.89983e-13
2.5888e-12
1.34983e-12
4.12861e-12
3.40801e-13
4.97629e-12
3.01535e-11
4.80444e-11
1.85573e-13
1.01182e-14
8.2655e-14
1.09233e-13
1.89983e-13
5.84568e-13
3.37458e-13
1.11201e-12
8.52002e-14
1.49959e-12
4.63932e-14
1.01182e-14
2.06637e-14
1.56046e-14
1.89983e-13
8.35097e-14
8.43644e-14
3.57857e-13
2.13e-14
4.50637e-13
2.31966e-14
1.01182e-14
3.3062e-13
4.83744e-13
1.89983e-13
2.5888e-12
1.34983e-12
4.12861e-12
3.40801e-13
4.97629e-12
3.01535e-11
4.88403e-11
1.85573e-13
1.01182e-14
8.2655e-14
1.09233e-13
1.89983e-13
5.84568e-13
3.37458e-13
1.11201e-12
8.52002e-14
1.49959e-12
4.63932e-14
1.01182e-14
2.06637e-14
1.56046e-14
1.89983e-13
8.35097e-14
8.43644e-14
3.57857e-13
2.13e-14
4.50637e-13
2.31966e-14
1.01182e-14
3.3062e-13
4.83744e-13
1.89983e-13
2.5888e-12
1.34983e-12
4.12861e-12
3.40801e-13
4.97629e-12
3.01535e-11
4.88328e-11
1.85573e-13
1.01182e-14
8.2655e-14
1.09233e-13
1.89983e-13
5.84568e-13
3.37458e-13
1.11201e-12
8.52002e-14
1.49959e-12
4.63932e-14
1.01182e-14
2.06637e-14
1.56046e-14
1.89983e-13
8.35097e-14
8.43644e-14
3.57857e-13
2.13e-14
4.50637e-13
2.31966e-14
1.01182e-14
3.3062e-13
4.83744e-13
1.89983e-13
2.5888e-12
1.34983e-12
4.12861e-12
3.40801e-13
4.97629e-12
3.01535e-11
4.88552e-11
1.85573e-13
1.01182e-14
8.2655e-14
1.09233e-13
1.89983e-13
5.84568e-13
3.37458e-13
1.11201e-12
8.52002e-14
1.49959e-12
4.63932e-14
1.01182e-14
2.06637e-14
1.56046e-14
1.89983e-13
8.35097e-14
8.43644e-14
3.57857e-13
2.13e-14
4.50637e-13
2.31966e-14
1.01182e-14
3.3062e-13
4.83744e-13
1.89983e-13
2.5888e-12
1.34983e-12
4.12861e-12
3.40801e-13
4.97629e-12
3.01535e-11
4.80139e-11
1.85573e-13
1.01182e-14
8.2655e-14
1.09233e-13
1.89983e-13
5.84568e-13
3.37458e-13
1.11201e-12
8.52002e-14
1.49959e-12
4.63932e-14
1.01182e-14
2.06637e-14
1.56046e-14
1.89983e-13
8.35097e-14
8.43644e-14
3.57857e-13
2.13e-14
4.50637e-13
2.31966e-14
1.01182e-14
3.3062e-13
4.83744e-13
1.89983e-13
2.5888e-12
1.34983e-12
4.12861e-12
3.40801e-13
4.97629e-12
3.01535e-11
4.80095e-11
1.85573e-13
1.01182e-14
8.2655e-14
1.09233e-13
1.89983e-13
5.84568e-13
3.37458e-13
1.11201e-12
8.52002e-14
1.49959e-12
4.63932e-14
1.01182e-14
2.06637e-14
1.56046e-14
1.89983e-13
8.35097e-14
8.43644e-14
3.57857e-13
2.13e-14
4.50637e-13
2.31966e-14
1.01182e-14
3.3062e-13
4.83744e-13
1.89983e-13
2.5888e-12
1.34983e-12
4.12861e-12
3.40801e-13
4.97629e-12
3.01535e-11
4.88861e-11
1.85573e-13
1.01182e-14
8.2655e-14
1.09233e-13
1.89983e-13
5.84568e-13
3.37458e-13
1.11201e-12
8.52002e-14
1.49959e-12
4.63932e-14
1.01182e-14
2.06637e-14
1.56046e-14
1.89983e-13
8.35097e-14
8.43644e-14
3.57857e-13
2.13e-14
4.50637e-13
2.31966e-14
1.01182e-14
3.3062e-13
4.83744e-13
1.89983e-13
2.5888e-12
1.34983e-12
4.12861e-12
3.40801e-13
4.97629e-12
3.01535e-11
4.80382e-11
1.85573e-13
1.01182e-14
8.2655e-14
1.09233e-13
1.89983e-13
5.84568e-13
3.37458e-13
1.11201e-12
8.52002e-14
1.49959e-12
4.63932e-14
1.01182e-14
2.06637e-14
1.56046e-14
1.89983e-13
8.35097e-14
8.43644e-14
3.57857e-13
2.13e-14
4.50637e-13
2.31966e-14
1.01182e-14
3.3062e-13
4.83744e-13
1.89983e-13
2.5888e-12
1.34983e-12
4.12861e-12
3.40801e-13
4.97629e-12
3.01535e-11
4.80495e-11
1.85573e-13
1.01182e-14
8.2655e-14
1.09233e-13
1.89983e-13
5.84568e-13
3.37458e-13
1.11201e-12
8.52002e-14
1.49959e-12
4.63932e-14
1.01182e-14
2.06637e-14
1.56046e-14
1.89983e-13
8.35097e-14
8.43644e-14
3.57857e-13
2.13e-14
4.50637e-13
2.31966e-14
1.01182e-14
3.3062e-13
4.83744e-13
1.89983e-13
2.5888e-12
1.34983e-12
4.12861e-12
3.40801e-13
4.97629e-12
3.01535e-11
4.80608e-11
1.85573e-13
1.01182e-14
8.2655e-14
1.09233e-13
1.89983e-13
5.84568e-13
3.37458e-13
1.11201e-12
8.52002e-14
1.49959e-12
4.63932e-14
1.01182e-14
2.06637e-14
1.56046e-14
1.89983e-13
8.35097e-14
8.43644e-14
3.57857e-13
2.13e-14
4.50637e-13
2.31966e-14
1.01182e-14
3.3062e-13
4.83744e-13
1.89983e-13
2.5888e-12
1.34983e-12
4.12861e-12
3.40801e-13
4.97629e-12
3.01535e-11
4.80544e-11
1.85573e-13
1.01182e-14
8.2655e-14
1.09233e-13
1.89983e-13
5.84568e-13
3.37458e-13
1.11201e-12
8.52002e-14
1.49959e-12
4.63932e-14
1.01182e-14
2.06637e-14
1.56046e-14
1.89983e-13
8.35097e-14
8.43644e-14
3.57857e-13
2.13e-14
4.50637e-13
2.31966e-14
1.01182e-14
3.3062e-13
4.83744e-13
1.89983e-13
2.5888e-12
1.34983e-12
4.12861e-12
3.40801e-13
4.97629e-12
3.01535e-11
4.80356e-11
1.85573e-13
1.01182e-14
8.2655e-14
1.09233e-13
1.89983e-13
5.84568e-13
3.37458e-13
1.11201e-12
8.52002e-14
1.49959e-12
4.63932e-14
1.01182e-14
2.06637e-14
1.56046e-14
1.89983e-13
8.35097e-14
8.43644e-14
3.57857e-13
2.13e-14
4.50637e-13
2.31966e-14
1.01182e-14
3.3062e-13
4.83744e-13
1.89983e-13
2.5888e-12
1.34983e-12
4.12861e-12
3.40801e-13
4.97629e-12
3.1332e-11
4.88426e-11
1.85573e-13
1.01182e-14
8.2655e-14
1.09233e-13
1.89983e-13
5.84568e-13
3.37458e-13
1.11201e-12
8.52002e-14
1.49959e-12
4.63932e-14
1.01182e-14
2.06637e-14
1.56046e-14
1.89983e-13
8.35097e-14
8.43644e-14
3.57857e-13
2.13e-14
4.50637e-13
2.31966e-14
1.01182e-14
3.3062e-13
4.83744e-13
1.89983e-13
2.5888e-12
1.34983e-12
4.12861e-12
3.40801e-13
4.97629e-12
3.1332e-11
4.95946e-11
1.85573e-13
1.01182e-14
8.2655e-14
1.09233e-13
1.89983e-13
5.84568e-13
3.37458e-13
1.11201e-12
8.52002e-14
1.49959e-12
4.63932e-14
1.01182e-14
2.06637e-14
1.56046e-14
1.89983e-13
8.35097e-14
8.43644e-14
3.57857e-13
2.13e-14
4.50637e-13
2.31966e-14
1.01182e-14
3.3062e-13
4.83744e-13
1.89983e-13
2.5888e-12
1.34983e-12
4.12861e-12
3.40801e-13
4.97629e-12
3.1332e-11
4.95775e-11
1.85573e-13
1.01182e-14
8.2655e-14
1.09233e-13
1.89983e-13
5.84568e-13
3.37458e-13
1.11201e-12
8.52002e-14
1.49959e-12
4.63932e-14
1.01182e-14
2.06637e-14
1.56046e-14
1.89983e-13
8.35097e-14
8.43644e-14
3.57857e-13
2.13e-14
4.50637e-13
2.31966e-14
1.01182e-14
3.3062e-13
4.83744e-13
1.89983e-13
2.5888e-12
1.34983e-12
4.12861e-12
3.40801e-13
4.97629e-12
3.1332e-11
4.87932e-11
1.85573e-13
1.01182e-14
8.2655e-14
1.09233e-13
1.89983e-13
5.84568e-13
3.37458e-13
1.11201e-12
8.52002e-14
1.49959e-12
4.63932e-14
1.01182e-14
2.06637e-14
1.56046e-14
1.89983e-13
8.35097e-14
8.43644e-14
3.57857e-13
2.13e-14
4.50637e-13
2.31966e-14
1.01182e-14
3.3062e-13
4.83744e-13
1.89983e-13
2.5888e-12
1.34983e-12
4.12861e-12
3.40801e-13
4.97629e-12
3.1332e-11
4.96046e-11
1.85573e-13
1.01182e-14
8.2655e-14
1.09233e-13
1.89983e-13
5.84568e-13
3.37458e-13
1.11201e-12
8.52002e-14
1.49959e-12
4.63932e-14
1.01182e-14
2.06637e-14
1.56046e-14
1.89983e-13
8.35097e-14
8.43644e-14
3.57857e-13
2.13e-14
4.50637e-13
2.31966e-14
1.01182e-14
3.3062e-13
4.83744e-13
1.89983e-13
2.5888e-12
1.34983e-12
4.12861e-12
3.40801e-13
4.97629e-12
3.1332e-11
4.87973e-11
1.85573e-13
1.01182e-14
8.2655e-14
1.09233e-13
1.89983e-13
5.84568e-13
3.37458e-13
1.11201e-12
8.52002e-14
1.49959e-12
4.63932e-14
1.01182e-14
2.06637e-14
1.56046e-14
1.89983e-13
8.35097e-14
8.43644e-14
3.57857e-13
2.13e-14
4.50637e-13
2.31966e-14
1.01182e-14
3.3062e-13
4.83744e-13
1.89983e-13
2.5888e-12
1.34983e-12
4.12861e-12
3.40801e-13
4.97629e-12
3.1332e-11
4.88328e-11
1.85573e-13
1.01182e-14
8.2655e-14
1.09233e-13
1.89983e-13
5.84568e-13
3.37458e-13
1.11201e-12
8.52002e-14
1.49959e-12
4.63932e-14
1.01182e-14
2.06637e-14
1.56046e-14
1.89983e-13
8.35097e-14
8.43644e-14
3.57857e-13
2.13e-14
4.50637e-13
2.31966e-14
1.01182e-14
3.3062e-13
4.83744e-13
1.89983e-13
2.5888e-12
1.34983e-12
4.12861e-12
3.40801e-13
4.97629e-12
3.1332e-11
4.88254e-11
1.85573e-13
1.01182e-14
8.2655e-14
1.09233e-13
1.89983e-13
5.84568e-13
3.37458e-13
1.11201e-12
8.52002e-14
1.49959e-12
4.63932e-14
1.01182e-14
2.06637e-14
1.56046e-14
1.89983e-13
8.35097e-14
8.43644e-14
3.57857e-13
2.13e-14
4.50637e-13
2.31966e-14
1.01182e-14
3.3062e-13
4.83744e-13
1.89983e-13
2.5888e-12
1.34983e-12
4.12861e-12
3.40801e-13
4.97629e-12
3.1332e-11
4.96087e-11
1.85573e-13
1.01182e-14
8.2655e-14
1.09233e-13
1.89983e-13
5.84568e-13
3.37458e-13
1.11201e-12
8.52002e-14
1.49959e-12
4.63932e-14
1.01182e-14
2.06637e-14
1.56046e-14
1.89983e-13
8.35097e-14
8.43644e-14
3.57857e-13
2.13e-14
4.50637e-13
2.31966e-14
1.01182e-14
3.3062e-13
4.83744e-13
1.89983e-13
2.5888e-12
1.34983e-12
4.12861e-12
3.40801e-13
4.97629e-12
3.1332e-11
4.9645e-11
1.85573e-13
1.01182e-14
8.2655e-14
1.09233e-13
1.89983e-13
5.84568e-13
3.37458e-13
1.11201e-12
8.52002e-14
1.49959e-12
4.63932e-14
1.01182e-14
2.06637e-14
1.56046e-14
1.89983e-13
8.35097e-14
8.43644e-14
3.57857e-13
2.13e-14
4.50637e-13
2.31966e-14
1.01182e-14
3.3062e-13
4.83744e-13
1.89983e-13
2.5888e-12
1.34983e-12
4.12861e-12
3.40801e-13
4.97629e-12
3.1332e-11
4.87619e-11
1.85573e-13
1.01182e-14
8.2655e-14
1.09233e-13
1.89983e-13
5.84568e-13
3.37458e-13
1.11201e-12
8.52002e-14
1.49959e-12
4.63932e-14
1.01182e-14
2.06637e-14
1.56046e-14
1.89983e-13
8.35097e-14
8.43644e-14
3.57857e-13
2.13e-14
4.50637e-13
2.31966e-14
1.01182e-14
3.3062e-13
4.83744e-13
1.89983e-13
2.5888e-12
1.34983e-12
4.12861e-12
3.40801e-13
4.97629e-12
3.1332e-11
4.96211e-11
1.85573e-13
1.01182e-14
8.2655e-14
1.09233e-13
1.89983e-13
5.84568e-13
3.37458e-13
1.11201e-12
8.52002e-14
1.49959e-12
4.63932e-14
1.01182e-14
2.06637e-14
1.56046e-14
1.89983e-13
8.35097e-14
8.43644e-14
3.57857e-13
2.13e-14
4.50637e-13
2.31966e-14
1.01182e-14
3.3062e-13
4.83744e-13
1.89983e-13
2.5888e-12
1.34983e-12
4.12861e-12
3.40801e-13
4.97629e-12
3.1332e-11
4.96522e-11
1.85573e-13
1.01182e-14
8.2655e-14
1.09233e-13
1.89983e-13
5.84568e-13
3.37458e-13
1.11201e-12
8.52002e-14
1.49959e-12
4.63932e-14
1.01182e-14
2.06637e-14
1.56046e-14
1.89983e-13
8.35097e-14
8.43644e-14
3.57857e-13
2.13e-14
4.50637e-13
2.31966e-14
1.01182e-14
3.3062e-13
4.83744e-13
1.89983e-13
2.5888e-12
1.34983e-12
4.12861e-12
3.40801e-13
4.97629e-12
3.1332e-11
4.87746e-11
1.85573e-13
1.01182e-14
8.2655e-14
1.09233e-13
1.89983e-13
5.84568e-13
3.37458e-13
1.11201e-12
8.52002e-14
1.49959e-12
4.63932e-14
1.01182e-14
2.06637e-14
1.56046e-14
1.89983e-13
8.35097e-14
8.43644e-14
3.57857e-13
2.13e-14
4.50637e-13
2.31966e-14
1.01182e-14
3.3062e-13
4.83744e-13
1.89983e-13
2.5888e-12
1.34983e-12
4.12861e-12
3.40801e-13
4.97629e-12
3.1332e-11
4.96248e-11
1.85573e-13
1.01182e-14
8.2655e-14
1.09233e-13
1.89983e-13
5.84568e-13
3.37458e-13
1.11201e-12
8.52002e-14
1.49959e-12
4.63932e-14
1.01182e-14
2.06637e-14
1.56046e-14
1.89983e-13
8.35097e-14
8.43644e-14
3.57857e-13
2.13e-14
4.50637e-13
2.31966e-14
1.01182e-14
3.3062e-13
4.83744e-13
1.89983e-13
2.5888e-12
1.34983e-12
4.12861e-12
3.40801e-13
4.97629e-12
3.1332e-11
4.96291e-11
1.85573e-13
1.01182e-14
8.2655e-14
1.09233e-13
1.89983e-13
5.84568e-13
3.37458e-13
1.11201e-12
8.52002e-14
1.49959e-12
4.63932e-14
1.01182e-14
2.06637e-14
1.56046e-14
1.89983e-13
8.35097e-14
8.43644e-14
3.57857e-13
2.13e-14
4.50637e-13
2.31966e-14
1.01182e-14
3.3062e-13
4.83744e-13
1.89983e-13
2.5888e-12
1.34983e-12
4.12861e-12
3.40801e-13
4.97629e-12
3.25105e-11
5.11373e-11
1.85573e-13
1.01182e-14
8.2655e-14
1.09233e-13
1.89983e-13
5.84568e-13
3.37458e-13
1.11201e-12
8.52002e-14
1.49959e-12
4.63932e-14
1.01182e-14
2.06637e-14
1.56046e-14
1.89983e-13
8.35097e-14
8.43644e-14
3.57857e-13
2.13e-14
4.50637e-13
2.31966e-14
1.01182e-14
3.3062e-13
4.83744e-13
1.89983e-13
2.5888e-12
1.34983e-12
4.12861e-12
3.40801e-13
4.97629e-12
3.25105e-11
5.03607e-11
1.85573e-13
1.01182e-14
8.2655e-14
1.09233e-13
1.89983e-13
5.84568e-13
3.37458e-13
1.11201e-12
8.52002e-14
1.49959e-12
4.63932e-14
1.01182e-14
2.06637e-14
1.56046e-14
1.89983e-13
8.35097e-14
8.43644e-14
3.57857e-13
2.13e-14
4.50637e-13
2.31966e-14
1.01182e-14
3.3062e-13
4.83744e-13
1.89983e-13
2.5888e-12
1.34983e-12
4.12861e-12
3.40801e-13
4.97629e-12
3.25105e-11
5.03123e-11
1.85573e-13
1.01182e-14
8.2655e-14
1.09233e-13
1.89983e-13
5.84568e-13
3.37458e-13
1.11201e-12
8.52002e-14
1.49959e-12
4.63932e-14
1.01182e-14
2.06637e-14
1.56046e-14
1.89983e-13
8.35097e-14
8.43644e-14
3.57857e-13
2.13e-14
4.50637e-13
2.31966e-14
1.01182e-14
3.3062e-13
4.83744e-13
1.89983e-13
2.5888e-12
1.34983e-12
4.12861e-12
3.40801e-13
4.97629e-12
3.25105e-11
5.10802e-11
1.85573e-13
1.01182e-14
8.2655e-14
1.09233e-13
1.89983e-13
5.84568e-13
3.37458e-13
1.11201e-12
8.52002e-14
1.49959e-12
4.63932e-14
1.01182e-14
2.06637e-14
1.56046e-14
1.89983e-13
8.35097e-14
8.43644e-14
3.57857e-13
2.13e-14
4.50637e-13
2.31966e-14
1.01182e-14
3.3062e-13
4.83744e-13
1.89983e-13
2.5888e-12
1.34983e-12
4.12861e-12
3.40801e-13
4.97629e-12
3.25105e-11
5.1184e-11
1.85573e-13
1.01182e-14
8.2655e-14
1.09233e-13
1.89983e-13
5.84568e-13
3.37458e-13
1.11201e-12
8.52002e-14
1.49959e-12
4.63932e-14
1.01182e-14
2.06637e-14
1.56046e-14
1.89983e-13
8.35097e-14
8.43644e-14
3.57857e-13
2.13e-14
4.50637e-13
2.31966e-14
1.01182e-14
3.3062e-13
4.83744e-13
1.89983e-13
2.5888e-12
1.34983e-12
4.12861e-12
3.40801e-13
4.97629e-12
3.25105e-11
5.10749e-11
1.85573e-13
1.01182e-14
8.2655e-14
1.09233e-13
1.89983e-13
5.84568e-13
3.37458e-13
1.11201e-12
8.52002e-14
1.49959e-12
4.63932e-14
1.01182e-14
2.06637e-14
1.56046e-14
1.89983e-13
8.35097e-14
8.43644e-14
3.57857e-13
2.13e-14
4.50637e-13
2.31966e-14
1.01182e-14
3.3062e-13
4.83744e-13
1.89983e-13
2.5888e-12
1.34983e-12
4.12861e-12
3.40801e-13
4.97629e-12
3.25105e-11
5.21574e-11
1.85573e-13
1.01182e-14
8.2655e-14
1.09233e-13
1.89983e-13
5.84568e-13
3.37458e-13
1.11201e-12
8.52002e-14
1.49959e-12
4.63932e-14
1.01182e-14
2.06637e-14
1.56046e-14
1.89983e-13
8.35097e-14
8.43644e-14
3.57857e-13
2.13e-14
4.50637e-13
2.31966e-14
1.01182e-14
3.3062e-13
4.83744e-13
1.89983e-13
2.5888e-12
1.34983e-12
4.12861e-12
3.40801e-13
4.97629e-12
3.25105e-11
5.21747e-11
1.85573e-13
1.01182e-14
8.2655e-14
1.09233e-13
1.89983e-13
5.84568e-13
3.37458e-13
1.11201e-12
8.52002e-14
1.49959e-12
4.63932e-14
1.01182e-14
2.06637e-14
1.56046e-14
1.89983e-13
8.35097e-14
8.43644e-14
3.57857e-13
2.13e-14
4.50637e-13
2.31966e-14
1.01182e-14
3.3062e-13
4.83744e-13
1.89983e-13
2.5888e-12
1.34983e-12
4.12861e-12
3.40801e-13
4.97629e-12
3.25105e-11
5.10736e-11
1.85573e-13
1.01182e-14
8.2655e-14
1.09233e-13
1.89983e-13
5.84568e-13
3.37458e-13
1.11201e-12
8.52002e-14
1.49959e-12
4.63932e-14
1.01182e-14
2.06637e-14
1.56046e-14
1.89983e-13
8.35097e-14
8.43644e-14
3.57857e-13
2.13e-14
4.50637e-13
2.31966e-14
1.01182e-14
3.3062e-13
4.83744e-13
1.89983e-13
2.5888e-12
1.34983e-12
4.12861e-12
3.40801e-13
4.97629e-12
3.25105e-11
5.11172e-11
1.85573e-13
1.01182e-14
8.2655e-14
1.09233e-13
1.89983e-13
5.84568e-13
3.37458e-13
1.11201e-12
8.52002e-14
1.49959e-12
4.63932e-14
1.01182e-14
2.06637e-14
1.56046e-14
1.89983e-13
8.35097e-14
8.43644e-14
3.57857e-13
2.13e-14
4.50637e-13
2.31966e-14
1.01182e-14
3.3062e-13
4.83744e-13
1.89983e-13
2.5888e-12
1.34983e-12
4.12861e-12
3.40801e-13
4.97629e-12
3.25105e-11
5.21654e-11
1.85573e-13
1.01182e-14
8.2655e-14
1.09233e-13
1.89983e-13
5.84568e-13
3.37458e-13
1.11201e-12
8.52002e-14
1.49959e-12
4.63932e-14
1.01182e-14
2.06637e-14
1.56046e-14
1.89983e-13
8.35097e-14
8.43644e-14
3.57857e-13
2.13e-14
4.50637e-13
2.31966e-14
1.01182e-14
3.3062e-13
4.83744e-13
1.89983e-13
2.5888e-12
1.34983e-12
4.12861e-12
3.40801e-13
4.97629e-12
3.25105e-11
5.11317e-11
1.85573e-13
1.01182e-14
8.2655e-14
1.09233e-13
1.89983e-13
5.84568e-13
3.37458e-13
1.11201e-12
8.52002e-14
1.49959e-12
4.63932e-14
1.01182e-14
2.06637e-14
1.56046e-14
1.89983e-13
8.35097e-14
8.43644e-14
3.57857e-13
2.13e-14
4.50637e-13
2.31966e-14
1.01182e-14
3.3062e-13
4.83744e-13
1.89983e-13
2.5888e-12
1.34983e-12
4.12861e-12
3.40801e-13
4.97629e-12
3.25105e-11
5.02954e-11
1.85573e-13
1.01182e-14
8.2655e-14
1.09233e-13
1.89983e-13
5.84568e-13
3.37458e-13
1.11201e-12
8.52002e-14
1.49959e-12
4.63932e-14
1.01182e-14
2.06637e-14
1.56046e-14
1.89983e-13
8.35097e-14
8.43644e-14
3.57857e-13
2.13e-14
4.50637e-13
2.31966e-14
1.01182e-14
3.3062e-13
4.83744e-13
1.89983e-13
2.5888e-12
1.34983e-12
4.12861e-12
3.40801e-13
4.97629e-12
3.25105e-11
5.10799e-11
1.85573e-13
1.01182e-14
8.2655e-14
1.09233e-13
1.89983e-13
5.84568e-13
3.37458e-13
1.11201e-12
8.52002e-14
1.49959e-12
4.63932e-14
1.01182e-14
2.06637e-14
1.56046e-14
1.89983e-13
8.35097e-14
8.43644e-14
3.57857e-13
2.13e-14
4.50637e-13
2.31966e-14
1.01182e-14
3.3062e-13
4.83744e-13
1.89983e-13
2.5888e-12
1.34983e-12
4.12861e-12
3.40801e-13
4.97629e-12
3.25105e-11
5.03112e-11
1.85573e-13
1.01182e-14
8.2655e-14
1.09233e-13
1.89983e-13
5.84568e-13
3.37458e-13
1.11201e-12
8.52002e-14
1.49959e-12
4.63932e-14
1.01182e-14
2.06637e-14
1.56046e-14
1.89983e-13
8.35097e-14
8.43644e-14
3.57857e-13
2.13e-14
4.50637e-13
2.31966e-14
1.01182e-14
3.3062e-13
4.83744e-13
1.89983e-13
2.5888e-12
1.34983e-12
4.12861e-12
3.40801e-13
4.97629e-12
3.25105e-11
5.11124e-11
1.85573e-13
1.01182e-14
8.2655e-14
1.09233e-13
1.89983e-13
5.84568e-13
3.37458e-13
1.11201e-12
8.52002e-14
1.49959e-12
4.63932e-14
1.01182e-14
2.06637e-14
1.56046e-14
1.89983e-13
8.35097e-14
8.43644e-14
3.57857e-13
2.13e-14
4.50637e-13
2.31966e-14
1.01182e-14
3.3062e-13
4.83744e-13
1.89983e-13
2.5888e-12
1.34983e-12
4.12861e-12
3.40801e-13
4.97629e-12
3.3689e-11
5.04321e-11
1.85573e-13
1.01182e-14
8.2655e-14
1.09233e-13
1.89983e-13
5.84568e-13
3.37458e-13
1.11201e-12
8.52002e-14
1.49959e-12
4.63932e-14
1.01182e-14
2.06637e-14
1.56046e-14
1.89983e-13
8.35097e-14
8.43644e-14
3.57857e-13
2.13e-14
4.50637e-13
2.31966e-14
1.01182e-14
3.3062e-13
4.83744e-13
1.89983e-13
2.5888e-12
1.34983e-12
4.12861e-12
3.40801e-13
4.97629e-12
3.3689e-11
5.32225e-11
1.85573e-13
1.01182e-14
8.2655e-14
1.09233e-13
1.89983e-13
5.84568e-13
3.37458e-13
1.11201e-12
8.52002e-14
1.49959e-12
4.63932e-14
1.01182e-14
2.06637e-14
1.56046e-14
1.89983e-13
8.35097e-14
8.43644e-14
3.57857e-13
2.13e-14
4.50637e-13
2.31966e-14
1.01182e-14
3.3062e-13
4.83744e-13
1.89983e-13
2.5888e-12
1.34983e-12
4.12861e-12
3.40801e-13
4.97629e-12
3.3689e-11
5.41968e-11
1.85573e-13
1.01182e-14
8.2655e-14
1.09233e-13
1.89983e-13
5.84568e-13
3.37458e-13
1.11201e-12
8.52002e-14
1.49959e-12
4.63932e-14
1.01182e-14
2.06637e-14
1.56046e-14
1.89983e-13
8.35097e-14
8.43644e-14
3.57857e-13
2.13e-14
4.50637e-13
2.31966e-14
1.01182e-14
3.3062e-13
4.83744e-13
1.89983e-13
2.5888e-12
1.34983e-12
4.12861e-12
3.40801e-13
4.97629e-12
3.3689e-11
5.00844e-11
1.85573e-13
1.01182e-14
8.2655e-14
1.09233e-13
1.89983e-13
5.84568e-13
3.37458e-13
1.11201e-12
8.52002e-14
1.49959e-12
4.63932e-14
1.01182e-14
2.06637e-14
1.56046e-14
1.89983e-13
8.35097e-14
8.43644e-14
3.57857e-13
2.13e-14
4.50637e-13
2.31966e-14
1.01182e-14
3.3062e-13
4.83744e-13
1.89983e-13
2.5888e-12
1.34983e-12
4.12861e-12
3.40801e-13
4.97629e-12
3.3689e-11
5.24459e-11
1.85573e-13
1.01182e-14
8.2655e-14
1.09233e-13
1.89983e-13
5.84568e-13
3.37458e-13
1.11201e-12
8.52002e-14
1.49959e-12
4.63932e-14
1.01182e-14
2.06637e-14
1.56046e-14
1.89983e-13
8.35097e-14
8.43644e-14
3.57857e-13
2.13e-14
4.50637e-13
2.31966e-14
1.01182e-14
3.3062e-13
4.83744e-13
1.89983e-13
2.5888e-12
1.34983e-12
4.12861e-12
3.40801e-13
4.97629e-12
3.3689e-11
5.43583e-11
1.85573e-13
1.01182e-14
8.2655e-14
1.09233e-13
1.89983e-13
5.84568e-13
3.37458e-13
1.11201e-12
8.52002e-14
1.49959e-12
4.63932e-14
1.01182e-14
2.06637e-14
1.56046e-14
1.89983e-13
8.35097e-14
8.43644e-14
3.57857e-13
2.13e-14
4.50637e-13
2.31966e-14
1.01182e-14
3.3062e-13
4.83744e-13
1.89983e-13
2.5888e-12
1.34983e-12
4.12861e-12
3.40801e-13
4.97629e-12
3.3689e-11
4.98642e-11
1.85573e-13
1.01182e-14
8.2655e-14
1.09233e-13
1.89983e-13
5.84568e-13
3.37458e-13
1.11201e-12
8.52002e-14
1.49959e-12
4.63932e-14
1.01182e-14
2.06637e-14
1.56046e-14
1.89983e-13
8.35097e-14
8.43644e-14
3.57857e-13
2.13e-14
4.50637e-13
2.31966e-14
1.01182e-14
3.3062e-13
4.83744e-13
1.89983e-13
2.5888e-12
1.34983e-12
4.12861e-12
3.40801e-13
4.97629e-12
3.3689e-11
4.96164e-11
1.85573e-13
1.01182e-14
8.2655e-14
1.09233e-13
1.89983e-13
5.84568e-13
3.37458e-13
1.11201e-12
8.52002e-14
1.49959e-12
4.63932e-14
1.01182e-14
2.06637e-14
1.56046e-14
1.89983e-13
8.35097e-14
8.43644e-14
3.57857e-13
2.13e-14
4.50637e-13
2.31966e-14
1.01182e-14
3.3062e-13
4.83744e-13
1.89983e-13
2.5888e-12
1.34983e-12
4.12861e-12
3.40801e-13
4.97629e-12
3.3689e-11
5.27916e-11
1.85573e-13
1.01182e-14
8.2655e-14
1.09233e-13
1.89983e-13
5.84568e-13
3.37458e-13
1.11201e-12
8.52002e-14
1.49959e-12
4.63932e-14
1.01182e-14
2.06637e-14
1.56046e-14
1.89983e-13
8.35097e-14
8.43644e-14
3.57857e-13
2.13e-14
4.50637e-13
2.31966e-14
1.01182e-14
3.3062e-13
4.83744e-13
1.89983e-13
2.5888e-12
1.34983e-12
4.12861e-12
3.40801e-13
4.97629e-12
3.3689e-11
5.30366e-11
1.85573e-13
1.01182e-14
8.2655e-14
1.09233e-13
1.89983e-13
5.84568e-13
3.37458e-13
1.11201e-12
8.52002e-14
1.49959e-12
4.63932e-14
1.01182e-14
2.06637e-14
1.56046e-14
1.89983e-13
8.35097e-14
8.43644e-14
3.57857e-13
2.13e-14
4.50637e-13
2.31966e-14
1.01182e-14
3.3062e-13
4.83744e-13
1.89983e-13
2.5888e-12
1.34983e-12
4.12861e-12
3.40801e-13
4.97629e-12
3.3689e-11
5.04656e-11
1.85573e-13
1.01182e-14
8.2655e-14
1.09233e-13
1.89983e-13
5.84568e-13
3.37458e-13
1.11201e-12
8.52002e-14
1.49959e-12
4.63932e-14
1.01182e-14
2.06637e-14
1.56046e-14
1.89983e-13
8.35097e-14
8.43644e-14
3.57857e-13
2.13e-14
4.50637e-13
2.31966e-14
1.01182e-14
3.3062e-13
4.83744e-13
1.89983e-13
2.5888e-12
1.34983e-12
4.12861e-12
3.40801e-13
4.97629e-12
3.3689e-11
5.38003e-11
1.85573e-13
1.01182e-14
8.2655e-14
1.09233e-13
1.89983e-13
5.84568e-13
3.37458e-13
1.11201e-12
8.52002e-14
1.49959e-12
4.63932e-14
1.01182e-14
2.06637e-14
1.56046e-14
1.89983e-13
8.35097e-14
8.43644e-14
3.57857e-13
2.13e-14
4.50637e-13
2.31966e-14
1.01182e-14
3.3062e-13
4.83744e-13
1.89983e-13
2.5888e-12
1.34983e-12
4.12861e-12
3.40801e-13
4.97629e-12
3.3689e-11
5.2444e-11
1.85573e-13
1.01182e-14
8.2655e-14
1.09233e-13
1.89983e-13
5.84568e-13
3.37458e-13
1.11201e-12
8.52002e-14
1.49959e-12
4.63932e-14
1.01182e-14
2.06637e-14
1.56046e-14
1.89983e-13
8.35097e-14
8.43644e-14
3.57857e-13
2.13e-14
4.50637e-13
2.31966e-14
1.01182e-14
3.3062e-13
4.83744e-13
1.89983e-13
2.5888e-12
1.34983e-12
4.12861e-12
3.40801e-13
4.97629e-12
3.3689e-11
4.98562e-11
1.85573e-13
1.01182e-14
8.2655e-14
1.09233e-13
1.89983e-13
5.84568e-13
3.37458e-13
1.11201e-12
8.52002e-14
1.49959e-12
4.63932e-14
1.01182e-14
2.06637e-14
1.56046e-14
1.89983e-13
8.35097e-14
8.43644e-14
3.57857e-13
2.13e-14
4.50637e-13
2.31966e-14
1.01182e-14
3.3062e-13
4.83744e-13
1.89983e-13
2.5888e-12
1.34983e-12
4.12861e-12
3.40801e-13
4.97629e-12
3.3689e-11
5.29404e-11
1.85573e-13
1.01182e-14
8.2655e-14
1.09233e-13
1.89983e-13
5.84568e-13
3.37458e-13
1.11201e-12
8.52002e-14
1.49959e-12
4.63932e-14
1.01182e-14
2.06637e-14
1.56046e-14
1.89983e-13
8.35097e-14
8.43644e-14
3.57857e-13
2.13e-14
4.50637e-13
2.31966e-14
1.01182e-14
3.3062e-13
4.83744e-13
1.89983e-13
2.5888e-12
1.34983e-12
4.12861e-12
3.40801e-13
4.97629e-12
3.3689e-11
5.14028e-11
1.85573e-13
1.01182e-14
8.2655e-14
1.09233e-13
1.89983e-13
5.84568e-13
3.37458e-13
1.11201e-12
8.52002e-14
1.49959e-12
4.63932e-14
1.01182e-14
2.06637e-14
1.56046e-14
1.89983e-13
8.35097e-14
8.43644e-14
3.57857e-13
2.13e-14
4.50637e-13
2.31966e-14
1.01182e-14
3.3062e-13
4.83744e-13
1.89983e-13
2.5888e-12
1.34983e-12
4.12861e-12
3.40801e-13
4.97629e-12
3.48675e-11
5.49961e-11
1.85573e-13
1.01182e-14
8.2655e-14
1.09233e-13
1.89983e-13
5.84568e-13
3.37458e-13
1.11201e-12
8.52002e-14
1.49959e-12
4.63932e-14
1.01182e-14
2.06637e-14
1.56046e-14
1.89983e-13
8.35097e-14
8.43644e-14
3.57857e-13
2.13e-14
4.50637e-13
2.31966e-14
1.01182e-14
3.3062e-13
4.83744e-13
1.89983e-13
2.5888e-12
1.34983e-12
4.12861e-12
3.40801e-13
4.97629e-12
3.48675e-11
5.3501e-11
1.85573e-13
1.01182e-14
8.2655e-14
1.09233e-13
1.89983e-13
5.84568e-13
3.37458e-13
1.11201e-12
8.52002e-14
1.49959e-12
4.63932e-14
1.01182e-14
2.06637e-14
1.56046e-14
1.89983e-13
8.35097e-14
8.43644e-14
3.57857e-13
2.13e-14
4.50637e-13
2.31966e-14
1.01182e-14
3.3062e-13
4.83744e-13
1.89983e-13
2.5888e-12
1.34983e-12
4.12861e-12
3.40801e-13
4.97629e-12
3.48675e-11
5.27535e-11
1.85573e-13
1.01182e-14
8.2655e-14
1.09233e-13
1.89983e-13
5.84568e-13
3.37458e-13
1.11201e-12
8.52002e-14
1.49959e-12
4.63932e-14
1.01182e-14
2.06637e-14
1.56046e-14
1.89983e-13
8.35097e-14
8.43644e-14
3.57857e-13
2.13e-14
4.50637e-13
2.31966e-14
1.01182e-14
3.3062e-13
4.83744e-13
1.89983e-13
2.5888e-12
1.34983e-12
4.12861e-12
3.40801e-13
4.97629e-12
3.48675e-11
5.20052e-11
1.85573e-13
1.01182e-14
8.2655e-14
1.09233e-13
1.89983e-13
5.84568e-13
3.37458e-13
1.11201e-12
8.52002e-14
1.49959e-12
4.63932e-14
1.01182e-14
2.06637e-14
1.56046e-14
1.89983e-13
8.35097e-14
8.43644e-14
3.57857e-13
2.13e-14
4.50637e-13
2.31966e-14
1.01182e-14
3.3062e-13
4.83744e-13
1.89983e-13
2.5888e-12
1.34983e-12
4.12861e-12
3.40801e-13
4.97629e-12
3.48675e-11
5.38097e-11
1.85573e-13
1.01182e-14
8.2655e-14
1.09233e-13
1.89983e-13
5.84568e-13
3.37458e-13
1.11201e-12
8.52002e-14
1.49959e-12
4.63932e-14
1.01182e-14
2.06637e-14
1.56046e-14
1.89983e-13
8.35097e-14
8.43644e-14
3.57857e-13
2.13e-14
4.50637e-13
2.31966e-14
1.01182e-14
3.3062e-13
4.83744e-13
1.89983e-13
2.5888e-12
1.34983e-12
4.12861e-12
3.40801e-13
4.97629e-12
3.48675e-11
5.08678e-11
1.85573e-13
1.01182e-14
8.2655e-14
1.09233e-13
1.89983e-13
5.84568e-13
3.37458e-13
1.11201e-12
8.52002e-14
1.49959e-12
4.63932e-14
1.01182e-14
2.06637e-14
1.56046e-14
1.89983e-13
8.35097e-14
8.43644e-14
3.57857e-13
2.13e-14
4.50637e-13
2.31966e-14
1.01182e-14
3.3062e-13
4.83744e-13
1.89983e-13
2.5888e-12
1.34983e-12
4.12861e-12
3.40801e-13
4.97629e-12
3.48675e-11
5.25524e-11
1.85573e-13
1.01182e-14
8.2655e-14
1.09233e-13
1.89983e-13
5.84568e-13
3.37458e-13
1.11201e-12
8.52002e-14
1.49959e-12
4.63932e-14
1.01182e-14
2.06637e-14
1.56046e-14
1.89983e-13
8.35097e-14
8.43644e-14
3.57857e-13
2.13e-14
4.50637e-13
2.31966e-14
1.01182e-14
3.3062e-13
4.83744e-13
1.89983e-13
2.5888e-12
1.34983e-12
4.12861e-12
3.40801e-13
4.97629e-12
3.48675e-11
5.18855e-11
1.85573e-13
1.01182e-14
8.2655e-14
1.09233e-13
1.89983e-13
5.84568e-13
3.37458e-13
1.11201e-12
8.52002e-14
1.49959e-12
4.63932e-14
1.01182e-14
2.06637e-14
1.56046e-14
1.89983e-13
8.35097e-14
8.43644e-14
3.57857e-13
2.13e-14
4.50637e-13
2.31966e-14
1.01182e-14
3.3062e-13
4.83744e-13
1.89983e-13
2.5888e-12
1.34983e-12
4.12861e-12
3.40801e-13
4.97629e-12
3.48675e-11
5.50948e-11
1.85573e-13
1.01182e-14
8.2655e-14
1.09233e-13
1.89983e-13
5.84568e-13
3.37458e-13
1.11201e-12
8.52002e-14
1.49959e-12
4.63932e-14
1.01182e-14
2.06637e-14
1.56046e-14
1.89983e-13
8.35097e-14
8.43644e-14
3.57857e-13
2.13e-14
4.50637e-13
2.31966e-14
1.01182e-14
3.3062e-13
4.83744e-13
1.89983e-13
2.5888e-12
1.34983e-12
4.12861e-12
3.40801e-13
4.97629e-12
3.48675e-11
5.2042e-11
1.85573e-13
1.01182e-14
8.2655e-14
1.09233e-13
1.89983e-13
5.84568e-13
3.37458e-13
1.11201e-12
8.52002e-14
1.49959e-12
4.63932e-14
1.01182e-14
2.06637e-14
1.56046e-14
1.89983e-13
8.35097e-14
8.43644e-14
3.57857e-13
2.13e-14
4.50637e-13
2.31966e-14
1.01182e-14
3.3062e-13
4.83744e-13
1.89983e-13
2.5888e-12
1.34983e-12
4.12861e-12
3.40801e-13
4.97629e-12
3.48675e-11
5.32641e-11
1.85573e-13
1.01182e-14
8.2655e-14
1.09233e-13
1.89983e-13
5.84568e-13
3.37458e-13
1.11201e-12
8.52002e-14
1.49959e-12
4.63932e-14
1.01182e-14
2.06637e-14
1.56046e-14
1.89983e-13
8.35097e-14
8.43644e-14
3.57857e-13
2.13e-14
4.50637e-13
2.31966e-14
1.01182e-14
3.3062e-13
4.83744e-13
1.89983e-13
2.5888e-12
1.34983e-12
4.12861e-12
3.40801e-13
4.97629e-12
3.48675e-11
4.96636e-11
1.85573e-13
1.01182e-14
8.2655e-14
1.09233e-13
1.89983e-13
5.84568e-13
3.37458e-13
1.11201e-12
8.52002e-14
1.49959e-12
4.63932e-14
1.01182e-14
2.06637e-14
1.56046e-14
1.89983e-13
8.35097e-14
8.43644e-14
3.57857e-13
2.13e-14
4.50637e-13
2.31966e-14
1.01182e-14
3.3062e-13
4.83744e-13
1.89983e-13
2.5888e-12
1.34983e-12
4.12861e-12
3.40801e-13
4.97629e-12
3.48675e-11
5.23242e-11
1.85573e-13
1.01182e-14
8.2655e-14
1.09233e-13
1.89983e-13
5.84568e-13
3.37458e-13
1.11201e-12
8.52002e-14
1.49959e-12
4.63932e-14
1.01182e-14
2.06637e-14
1.56046e-14
1.89983e-13
8.35097e-14
8.43644e-14
3.57857e-13
2.13e-14
4.50637e-13
2.31966e-14
1.01182e-14
3.3062e-13
4.83744e-13
1.89983e-13
2.5888e-12
1.34983e-12
4.12861e-12
3.40801e-13
[...]
1.09233e-13
1.89983e-13
5.84568e-13
3.37458e-13
1.11201e-12
8.52002e-14
1.49959e-12
4.63932e-14
1.01182e-14
2.06637e-14
1.56046e-14
1.89983e-13
8.35097e-14
8.43644e-14
3.57857e-13
2.13e-14
4.50637e-13
2.31966e-14
1.01182e-14
3.3062e-13
4.83744e-13
1.89983e-13
2.5888e-12
1.34983e-12
4.12861e-12
3.40801e-13
4.97629e-12
4.07599e-11
5.83481e-11
1.85573e-13
1.01182e-14
8.2655e-14
1.09233e-13
1.89983e-13
5.84568e-13
3.37458e-13
1.11201e-12
8.52002e-14
1.49959e-12
4.63932e-14
1.01182e-14
2.06637e-14
1.56046e-14
1.89983e-13
8.35097e-14
8.43644e-14
3.57857e-13
2.13e-14
4.50637e-13
2.31966e-14
1.01182e-14
3.3062e-13
4.83744e-13
1.89983e-13
2.5888e-12
1.34983e-12
4.12861e-12
3.40801e-13
4.97629e-12
4.07599e-11
5.76551e-11
1.85573e-13
1.01182e-14
8.2655e-14
1.09233e-13
1.89983e-13
5.84568e-13
3.37458e-13
1.11201e-12
8.52002e-14
1.49959e-12
4.63932e-14
1.01182e-14
2.06637e-14
1.56046e-14
1.89983e-13
8.35097e-14
8.43644e-14
3.57857e-13
2.13e-14
4.50637e-13
2.31966e-14
1.01182e-14
3.3062e-13
4.83744e-13
1.89983e-13
2.5888e-12
1.34983e-12
4.12861e-12
3.40801e-13
4.97629e-12
4.07599e-11
6.00262e-11
1.85573e-13
1.01182e-14
8.2655e-14
1.09233e-13
1.89983e-13
5.84568e-13
3.37458e-13
1.11201e-12
8.52002e-14
1.49959e-12
4.63932e-14
1.01182e-14
2.06637e-14
1.56046e-14
1.89983e-13
8.35097e-14
8.43644e-14
3.57857e-13
2.13e-14
4.50637e-13
2.31966e-14
1.01182e-14
3.3062e-13
4.83744e-13
1.89983e-13
2.5888e-12
1.34983e-12
4.12861e-12
3.40801e-13
4.97629e-12
4.07599e-11
5.95025e-11
1.85573e-13
1.01182e-14
8.2655e-14
1.09233e-13
1.89983e-13
5.84568e-13
3.37458e-13
1.11201e-12
8.52002e-14
1.49959e-12
4.63932e-14
1.01182e-14
2.06637e-14
1.56046e-14
1.89983e-13
8.35097e-14
8.43644e-14
3.57857e-13
2.13e-14
4.50637e-13
2.31966e-14
1.01182e-14
3.3062e-13
4.83744e-13
1.89983e-13
2.5888e-12
1.34983e-12
4.12861e-12
3.40801e-13
4.97629e-12
4.07599e-11
5.8891e-11
1.85573e-13
1.01182e-14
8.2655e-14
1.09233e-13
1.89983e-13
5.84568e-13
3.37458e-13
1.11201e-12
8.52002e-14
1.49959e-12
4.63932e-14
1.01182e-14
2.06637e-14
1.56046e-14
1.89983e-13
8.35097e-14
8.43644e-14
3.57857e-13
2.13e-14
4.50637e-13
2.31966e-14
1.01182e-14
3.3062e-13
4.83744e-13
1.89983e-13
2.5888e-12
1.34983e-12
4.12861e-12
3.40801e-13
4.97629e-12
4.19384e-11
6.14074e-11
1.85573e-13
1.01182e-14
8.2655e-14
1.09233e-13
1.89983e-13
5.84568e-13
3.37458e-13
1.11201e-12
8.52002e-14
1.49959e-12
4.63932e-14
1.01182e-14
2.06637e-14
1.56046e-14
1.89983e-13
8.35097e-14
8.43644e-14
3.57857e-13
2.13e-14
4.50637e-13
2.31966e-14
1.01182e-14
3.3062e-13
4.83744e-13
1.89983e-13
2.5888e-12
1.34983e-12
4.12861e-12
3.40801e-13
4.97629e-12
4.19384e-11
5.89135e-11
1.85573e-13
1.01182e-14
8.2655e-14
1.09233e-13
1.89983e-13
5.84568e-13
3.37458e-13
1.11201e-12
8.52002e-14
1.49959e-12
4.63932e-14
1.01182e-14
2.06637e-14
1.56046e-14
1.89983e-13
8.35097e-14
8.43644e-14
3.57857e-13
2.13e-14
4.50637e-13
2.31966e-14
1.01182e-14
3.3062e-13
4.83744e-13
1.89983e-13
2.5888e-12
1.34983e-12
4.12861e-12
3.40801e-13
4.97629e-12
4.19384e-11
5.81993e-11
1.85573e-13
1.01182e-14
8.2655e-14
1.09233e-13
1.89983e-13
5.84568e-13
3.37458e-13
1.11201e-12
8.52002e-14
1.49959e-12
4.63932e-14
1.01182e-14
2.06637e-14
1.56046e-14
1.89983e-13
8.35097e-14
8.43644e-14
3.57857e-13
2.13e-14
4.50637e-13
2.31966e-14
1.01182e-14
3.3062e-13
4.83744e-13
1.89983e-13
2.5888e-12
1.34983e-12
4.12861e-12
3.40801e-13
4.97629e-12
4.19384e-11
5.74394e-11
1.85573e-13
1.01182e-14
8.2655e-14
1.09233e-13
1.89983e-13
5.84568e-13
3.37458e-13
1.11201e-12
8.52002e-14
1.49959e-12
4.63932e-14
1.01182e-14
2.06637e-14
1.56046e-14
1.89983e-13
8.35097e-14
8.43644e-14
3.57857e-13
2.13e-14
4.50637e-13
2.31966e-14
1.01182e-14
3.3062e-13
4.83744e-13
1.89983e-13
2.5888e-12
1.34983e-12
4.12861e-12
3.40801e-13
4.97629e-12
4.19384e-11
6.12928e-11
1.85573e-13
1.01182e-14
8.2655e-14
1.09233e-13
1.89983e-13
5.84568e-13
3.37458e-13
1.11201e-12
8.52002e-14
1.49959e-12
4.63932e-14
1.01182e-14
2.06637e-14
1.56046e-14
1.89983e-13
8.35097e-14
8.43644e-14
3.57857e-13
2.13e-14
4.50637e-13
2.31966e-14
1.01182e-14
3.3062e-13
4.83744e-13
1.89983e-13
2.5888e-12
1.34983e-12
4.12861e-12
3.40801e-13
4.97629e-12
4.19384e-11
5.85825e-11
1.85573e-13
1.01182e-14
8.2655e-14
1.09233e-13
1.89983e-13
5.84568e-13
3.37458e-13
1.11201e-12
8.52002e-14
1.49959e-12
4.63932e-14
1.01182e-14
2.06637e-14
1.56046e-14
1.89983e-13
8.35097e-14
8.43644e-14
3.57857e-13
2.13e-14
4.50637e-13
2.31966e-14
1.01182e-14
3.3062e-13
4.83744e-13
1.89983e-13
2.5888e-12
1.34983e-12
4.12861e-12
3.40801e-13
4.97629e-12
4.19384e-11
5.77481e-11
1.85573e-13
1.01182e-14
8.2655e-14
1.09233e-13
1.89983e-13
5.84568e-13
3.37458e-13
1.11201e-12
8.52002e-14
1.49959e-12
4.63932e-14
1.01182e-14
2.06637e-14
1.56046e-14
1.89983e-13
8.35097e-14
8.43644e-14
3.57857e-13
2.13e-14
4.50637e-13
2.31966e-14
1.01182e-14
3.3062e-13
4.83744e-13
1.89983e-13
2.5888e-12
1.34983e-12
4.12861e-12
3.40801e-13
4.97629e-12
4.19384e-11
5.73123e-11
1.85573e-13
1.01182e-14
8.2655e-14
1.09233e-13
1.89983e-13
5.84568e-13
3.37458e-13
1.11201e-12
8.52002e-14
1.49959e-12
4.63932e-14
1.01182e-14
2.06637e-14
1.56046e-14
1.89983e-13
8.35097e-14
8.43644e-14
3.57857e-13
2.13e-14
4.50637e-13
2.31966e-14
1.01182e-14
3.3062e-13
4.83744e-13
1.89983e-13
2.5888e-12
1.34983e-12
4.12861e-12
3.40801e-13
4.97629e-12
4.19384e-11
6.13125e-11
1.85573e-13
1.01182e-14
8.2655e-14
1.09233e-13
1.89983e-13
5.84568e-13
3.37458e-13
1.11201e-12
8.52002e-14
1.49959e-12
4.63932e-14
1.01182e-14
2.06637e-14
1.56046e-14
1.89983e-13
8.35097e-14
8.43644e-14
3.57857e-13
2.13e-14
4.50637e-13
2.31966e-14
1.01182e-14
3.3062e-13
4.83744e-13
1.89983e-13
2.5888e-12
1.34983e-12
4.12861e-12
3.40801e-13
4.97629e-12
4.19384e-11
5.87197e-11
1.85573e-13
1.01182e-14
8.2655e-14
1.09233e-13
1.89983e-13
5.84568e-13
3.37458e-13
1.11201e-12
8.52002e-14
1.49959e-12
4.63932e-14
1.01182e-14
2.06637e-14
1.56046e-14
1.89983e-13
8.35097e-14
8.43644e-14
3.57857e-13
2.13e-14
4.50637e-13
2.31966e-14
1.01182e-14
3.3062e-13
4.83744e-13
1.89983e-13
2.5888e-12
1.34983e-12
4.12861e-12
3.40801e-13
4.97629e-12
4.19384e-11
5.80955e-11
1.85573e-13
1.01182e-14
8.2655e-14
1.09233e-13
1.89983e-13
5.84568e-13
3.37458e-13
1.11201e-12
8.52002e-14
1.49959e-12
4.63932e-14
1.01182e-14
2.06637e-14
1.56046e-14
1.89983e-13
8.35097e-14
8.43644e-14
3.57857e-13
2.13e-14
4.50637e-13
2.31966e-14
1.01182e-14
3.3062e-13
4.83744e-13
1.89983e-13
2.5888e-12
1.34983e-12
4.12861e-12
3.40801e-13
4.97629e-12
4.19384e-11
5.74599e-11
1.85573e-13
1.01182e-14
8.2655e-14
1.09233e-13
1.89983e-13
5.84568e-13
3.37458e-13
1.11201e-12
8.52002e-14
1.49959e-12
4.63932e-14
1.01182e-14
2.06637e-14
1.56046e-14
1.89983e-13
8.35097e-14
8.43644e-14
3.57857e-13
2.13e-14
4.50637e-13
2.31966e-14
1.01182e-14
3.3062e-13
4.83744e-13
1.89983e-13
2.5888e-12
1.34983e-12
4.12861e-12
3.40801e-13
4.97629e-12
4.19384e-11
6.11588e-11
1.85573e-13
1.01182e-14
8.2655e-14
1.09233e-13
1.89983e-13
5.84568e-13
3.37458e-13
1.11201e-12
8.52002e-14
1.49959e-12
4.63932e-14
1.01182e-14
2.06637e-14
1.56046e-14
1.89983e-13
8.35097e-14
8.43644e-14
3.57857e-13
2.13e-14
4.50637e-13
2.31966e-14
1.01182e-14
3.3062e-13
4.83744e-13
1.89983e-13
2.5888e-12
1.34983e-12
4.12861e-12
3.40801e-13
4.97629e-12
4.19384e-11
5.883e-11
1.85573e-13
1.01182e-14
8.2655e-14
1.09233e-13
1.89983e-13
5.84568e-13
3.37458e-13
1.11201e-12
8.52002e-14
1.49959e-12
4.63932e-14
1.01182e-14
2.06637e-14
1.56046e-14
1.89983e-13
8.35097e-14
8.43644e-14
3.57857e-13
2.13e-14
4.50637e-13
2.31966e-14
1.01182e-14
3.3062e-13
4.83744e-13
1.89983e-13
2.5888e-12
1.34983e-12
4.12861e-12
3.40801e-13
4.97629e-12
4.19384e-11
5.80159e-11
1.85573e-13
1.01182e-14
8.2655e-14
1.09233e-13
1.89983e-13
5.84568e-13
3.37458e-13
1.11201e-12
8.52002e-14
1.49959e-12
4.63932e-14
1.01182e-14
2.06637e-14
1.56046e-14
1.89983e-13
8.35097e-14
8.43644e-14
3.57857e-13
2.13e-14
4.50637e-13
2.31966e-14
1.01182e-14
3.3062e-13
4.83744e-13
1.89983e-13
2.5888e-12
1.34983e-12
4.12861e-12
3.40801e-13
4.97629e-12
4.19384e-11
5.75647e-11
1.85573e-13
1.01182e-14
8.2655e-14
1.09233e-13
1.89983e-13
5.84568e-13
3.37458e-13
1.11201e-12
8.52002e-14
1.49959e-12
4.63932e-14
1.01182e-14
2.06637e-14
1.56046e-14
1.89983e-13
8.35097e-14
8.43644e-14
3.57857e-13
2.13e-14
4.50637e-13
2.31966e-14
1.01182e-14
3.3062e-13
4.83744e-13
1.89983e-13
2.5888e-12
1.34983e-12
4.12861e-12
3.40801e-13
4.97629e-12
4.31168e-11
5.94533e-11
1.85573e-13
1.01182e-14
8.2655e-14
1.09233e-13
1.89983e-13
5.84568e-13
3.37458e-13
1.11201e-12
8.52002e-14
1.49959e-12
4.63932e-14
1.01182e-14
2.06637e-14
1.56046e-14
1.89983e-13
8.35097e-14
8.43644e-14
3.57857e-13
2.13e-14
4.50637e-13
2.31966e-14
1.01182e-14
3.3062e-13
4.83744e-13
1.89983e-13
2.5888e-12
1.34983e-12
4.12861e-12
3.40801e-13
4.97629e-12
4.31168e-11
6.35994e-11
1.85573e-13
1.01182e-14
8.2655e-14
1.09233e-13
1.89983e-13
5.84568e-13
3.37458e-13
1.11201e-12
8.52002e-14
1.49959e-12
4.63932e-14
1.01182e-14
2.06637e-14
1.56046e-14
1.89983e-13
8.35097e-14
8.43644e-14
3.57857e-13
2.13e-14
4.50637e-13
2.31966e-14
1.01182e-14
3.3062e-13
4.83744e-13
1.89983e-13
2.5888e-12
1.34983e-12
4.12861e-12
3.40801e-13
4.97629e-12
4.31168e-11
5.89649e-11
1.85573e-13
1.01182e-14
8.2655e-14
1.09233e-13
1.89983e-13
5.84568e-13
3.37458e-13
1.11201e-12
8.52002e-14
1.49959e-12
4.63932e-14
1.01182e-14
2.06637e-14
1.56046e-14
1.89983e-13
8.35097e-14
8.43644e-14
3.57857e-13
2.13e-14
4.50637e-13
2.31966e-14
1.01182e-14
3.3062e-13
4.83744e-13
1.89983e-13
2.5888e-12
1.34983e-12
4.12861e-12
3.40801e-13
4.97629e-12
4.31168e-11
5.86654e-11
1.85573e-13
1.01182e-14
8.2655e-14
1.09233e-13
1.89983e-13
5.84568e-13
3.37458e-13
1.11201e-12
8.52002e-14
1.49959e-12
4.63932e-14
1.01182e-14
2.06637e-14
1.56046e-14
1.89983e-13
8.35097e-14
8.43644e-14
3.57857e-13
2.13e-14
4.50637e-13
2.31966e-14
1.01182e-14
3.3062e-13
4.83744e-13
1.89983e-13
2.5888e-12
1.34983e-12
4.12861e-12
3.40801e-13
4.97629e-12
4.31168e-11
6.0089e-11
1.85573e-13
1.01182e-14
8.2655e-14
1.09233e-13
1.89983e-13
5.84568e-13
3.37458e-13
1.11201e-12
8.52002e-14
1.49959e-12
4.63932e-14
1.01182e-14
2.06637e-14
1.56046e-14
1.89983e-13
8.35097e-14
8.43644e-14
3.57857e-13
2.13e-14
4.50637e-13
2.31966e-14
1.01182e-14
3.3062e-13
4.83744e-13
1.89983e-13
2.5888e-12
1.34983e-12
4.12861e-12
3.40801e-13
4.97629e-12
4.31168e-11
6.30137e-11
1.85573e-13
1.01182e-14
8.2655e-14
1.09233e-13
1.89983e-13
5.84568e-13
3.37458e-13
1.11201e-12
8.52002e-14
1.49959e-12
4.63932e-14
1.01182e-14
2.06637e-14
1.56046e-14
1.89983e-13
8.35097e-14
8.43644e-14
3.57857e-13
2.13e-14
4.50637e-13
2.31966e-14
1.01182e-14
3.3062e-13
4.83744e-13
1.89983e-13
2.5888e-12
1.34983e-12
4.12861e-12
3.40801e-13
4.97629e-12
4.31168e-11
5.97245e-11
1.85573e-13
1.01182e-14
8.2655e-14
1.09233e-13
1.89983e-13
5.84568e-13
3.37458e-13
1.11201e-12
8.52002e-14
1.49959e-12
4.63932e-14
1.01182e-14
2.06637e-14
1.56046e-14
1.89983e-13
8.35097e-14
8.43644e-14
3.57857e-13
2.13e-14
4.50637e-13
2.31966e-14
1.01182e-14
3.3062e-13
4.83744e-13
1.89983e-13
2.5888e-12
1.34983e-12
4.12861e-12
3.40801e-13
4.97629e-12
4.31168e-11
5.91992e-11
1.85573e-13
1.01182e-14
8.2655e-14
1.09233e-13
1.89983e-13
5.84568e-13
3.37458e-13
1.11201e-12
8.52002e-14
1.49959e-12
4.63932e-14
1.01182e-14
2.06637e-14
1.56046e-14
1.89983e-13
8.35097e-14
8.43644e-14
3.57857e-13
2.13e-14
4.50637e-13
2.31966e-14
1.01182e-14
3.3062e-13
4.83744e-13
1.89983e-13
2.5888e-12
1.34983e-12
4.12861e-12
3.40801e-13
4.97629e-12
4.31168e-11
5.9629e-11
1.85573e-13
1.01182e-14
8.2655e-14
1.09233e-13
1.89983e-13
5.84568e-13
3.37458e-13
1.11201e-12
8.52002e-14
1.49959e-12
4.63932e-14
1.01182e-14
2.06637e-14
1.56046e-14
1.89983e-13
8.35097e-14
8.43644e-14
3.57857e-13
2.13e-14
4.50637e-13
2.31966e-14
1.01182e-14
3.3062e-13
4.83744e-13
1.89983e-13
2.5888e-12
1.34983e-12
4.12861e-12
3.40801e-13
4.97629e-12
4.31168e-11
6.32881e-11
1.85573e-13
1.01182e-14
8.2655e-14
1.09233e-13
1.89983e-13
5.84568e-13
3.37458e-13
1.11201e-12
8.52002e-14
1.49959e-12
4.63932e-14
1.01182e-14
2.06637e-14
1.56046e-14
1.89983e-13
8.35097e-14
8.43644e-14
3.57857e-13
2.13e-14
4.50637e-13
2.31966e-14
1.01182e-14
3.3062e-13
4.83744e-13
1.89983e-13
2.5888e-12
1.34983e-12
4.12861e-12
3.40801e-13
4.97629e-12
4.31168e-11
5.92517e-11
1.85573e-13
1.01182e-14
8.2655e-14
1.09233e-13
1.89983e-13
5.84568e-13
3.37458e-13
1.11201e-12
8.52002e-14
1.49959e-12
4.63932e-14
1.01182e-14
2.06637e-14
1.56046e-14
1.89983e-13
8.35097e-14
8.43644e-14
3.57857e-13
2.13e-14
4.50637e-13
2.31966e-14
1.01182e-14
3.3062e-13
4.83744e-13
1.89983e-13
2.5888e-12
1.34983e-12
4.12861e-12
3.40801e-13
4.97629e-12
4.31168e-11
5.88668e-11
1.85573e-13
1.01182e-14
8.2655e-14
1.09233e-13
1.89983e-13
5.84568e-13
3.37458e-13
1.11201e-12
8.52002e-14
1.49959e-12
4.63932e-14
1.01182e-14
2.06637e-14
1.56046e-14
1.89983e-13
8.35097e-14
8.43644e-14
3.57857e-13
2.13e-14
4.50637e-13
2.31966e-14
1.01182e-14
3.3062e-13
4.83744e-13
1.89983e-13
2.5888e-12
1.34983e-12
4.12861e-12
3.40801e-13
4.97629e-12
4.31168e-11
5.973e-11
1.85573e-13
1.01182e-14
8.2655e-14
1.09233e-13
1.89983e-13
5.84568e-13
3.37458e-13
1.11201e-12
8.52002e-14
1.49959e-12
4.63932e-14
1.01182e-14
2.06637e-14
1.56046e-14
1.89983e-13
8.35097e-14
8.43644e-14
3.57857e-13
2.13e-14
4.50637e-13
2.31966e-14
1.01182e-14
3.3062e-13
4.83744e-13
1.89983e-13
2.5888e-12
1.34983e-12
4.12861e-12
3.40801e-13
4.97629e-12
4.31168e-11
6.25272e-11
1.85573e-13
1.01182e-14
8.2655e-14
1.09233e-13
1.89983e-13
5.84568e-13
3.37458e-13
1.11201e-12
8.52002e-14
1.49959e-12
4.63932e-14
1.01182e-14
2.06637e-14
1.56046e-14
1.89983e-13
8.35097e-14
8.43644e-14
3.57857e-13
2.13e-14
4.50637e-13
2.31966e-14
1.01182e-14
3.3062e-13
4.83744e-13
1.89983e-13
2.5888e-12
1.34983e-12
4.12861e-12
3.40801e-13
4.97629e-12
4.31168e-11
5.92139e-11
1.85573e-13
1.01182e-14
8.2655e-14
1.09233e-13
1.89983e-13
5.84568e-13
3.37458e-13
1.11201e-12
8.52002e-14
1.49959e-12
4.63932e-14
1.01182e-14
2.06637e-14
1.56046e-14
1.89983e-13
8.35097e-14
8.43644e-14
3.57857e-13
2.13e-14
4.50637e-13
2.31966e-14
1.01182e-14
3.3062e-13
4.83744e-13
1.89983e-13
2.5888e-12
1.34983e-12
4.12861e-12
3.40801e-13
4.97629e-12
4.31168e-11
5.87307e-11
1.85573e-13
1.01182e-14
8.2655e-14
1.09233e-13
1.89983e-13
5.84568e-13
3.37458e-13
1.11201e-12
8.52002e-14
1.49959e-12
4.63932e-14
1.01182e-14
2.06637e-14
1.56046e-14
1.89983e-13
8.35097e-14
8.43644e-14
3.57857e-13
2.13e-14
4.50637e-13
2.31966e-14
1.01182e-14
3.3062e-13
4.83744e-13
1.89983e-13
2.5888e-12
1.34983e-12
4.12861e-12
3.40801e-13
4.97629e-12
4.42953e-11
6.31047e-11
1.85573e-13
1.01182e-14
8.2655e-14
1.09233e-13
1.89983e-13
5.84568e-13
3.37458e-13
1.11201e-12
8.52002e-14
1.49959e-12
4.63932e-14
1.01182e-14
2.06637e-14
1.56046e-14
1.89983e-13
8.35097e-14
8.43644e-14
3.57857e-13
2.13e-14
4.50637e-13
2.31966e-14
1.01182e-14
3.3062e-13
4.83744e-13
1.89983e-13
2.5888e-12
1.34983e-12
4.12861e-12
3.40801e-13
4.97629e-12
4.42953e-11
6.09637e-11
1.85573e-13
1.01182e-14
8.2655e-14
1.09233e-13
1.89983e-13
5.84568e-13
3.37458e-13
1.11201e-12
8.52002e-14
1.49959e-12
4.63932e-14
1.01182e-14
2.06637e-14
1.56046e-14
1.89983e-13
8.35097e-14
8.43644e-14
3.57857e-13
2.13e-14
4.50637e-13
2.31966e-14
1.01182e-14
3.3062e-13
4.83744e-13
1.89983e-13
2.5888e-12
1.34983e-12
4.12861e-12
3.40801e-13
4.97629e-12
4.42953e-11
6.05447e-11
1.85573e-13
1.01182e-14
8.2655e-14
1.09233e-13
1.89983e-13
5.84568e-13
3.37458e-13
1.11201e-12
8.52002e-14
1.49959e-12
4.63932e-14
1.01182e-14
2.06637e-14
1.56046e-14
1.89983e-13
8.35097e-14
8.43644e-14
3.57857e-13
2.13e-14
4.50637e-13
2.31966e-14
1.01182e-14
3.3062e-13
4.83744e-13
1.89983e-13
2.5888e-12
1.34983e-12
4.12861e-12
3.40801e-13
4.97629e-12
4.42953e-11
5.99924e-11
1.85573e-13
1.01182e-14
8.2655e-14
1.09233e-13
1.89983e-13
5.84568e-13
3.37458e-13
1.11201e-12
8.52002e-14
1.49959e-12
4.63932e-14
1.01182e-14
2.06637e-14
1.56046e-14
1.89983e-13
8.35097e-14
8.43644e-14
3.57857e-13
2.13e-14
4.50637e-13
2.31966e-14
1.01182e-14
3.3062e-13
4.83744e-13
1.89983e-13
2.5888e-12
1.34983e-12
4.12861e-12
3.40801e-13
4.97629e-12
4.42953e-11
6.44909e-11
1.85573e-13
1.01182e-14
8.2655e-14
1.09233e-13
1.89983e-13
5.84568e-13
3.37458e-13
1.11201e-12
8.52002e-14
1.49959e-12
4.63932e-14
1.01182e-14
2.06637e-14
1.56046e-14
1.89983e-13
8.35097e-14
8.43644e-14
3.57857e-13
2.13e-14
4.50637e-13
2.31966e-14
1.01182e-14
3.3062e-13
4.83744e-13
1.89983e-13
2.5888e-12
1.34983e-12
4.12861e-12
3.40801e-13
4.97629e-12
4.42953e-11
6.01239e-11
1.85573e-13
1.01182e-14
8.2655e-14
1.09233e-13
1.89983e-13
5.84568e-13
3.37458e-13
1.11201e-12
8.52002e-14
1.49959e-12
4.63932e-14
1.01182e-14
2.06637e-14
1.56046e-14
1.89983e-13
8.35097e-14
8.43644e-14
3.57857e-13
2.13e-14
4.50637e-13
2.31966e-14
1.01182e-14
3.3062e-13
4.83744e-13
1.89983e-13
2.5888e-12
1.34983e-12
4.12861e-12
3.40801e-13
4.97629e-12
4.42953e-11
5.97555e-11
1.85573e-13
1.01182e-14
8.2655e-14
1.09233e-13
1.89983e-13
5.84568e-13
3.37458e-13
1.11201e-12
8.52002e-14
1.49959e-12
4.63932e-14
1.01182e-14
2.06637e-14
1.56046e-14
1.89983e-13
8.35097e-14
8.43644e-14
3.57857e-13
2.13e-14
4.50637e-13
2.31966e-14
1.01182e-14
3.3062e-13
4.83744e-13
1.89983e-13
2.5888e-12
1.34983e-12
4.12861e-12
3.40801e-13
4.97629e-12
4.42953e-11
5.93881e-11
1.85573e-13
1.01182e-14
8.2655e-14
1.09233e-13
1.89983e-13
5.84568e-13
3.37458e-13
1.11201e-12
8.52002e-14
1.49959e-12
4.63932e-14
1.01182e-14
2.06637e-14
1.56046e-14
1.89983e-13
8.35097e-14
8.43644e-14
3.57857e-13
2.13e-14
4.50637e-13
2.31966e-14
1.01182e-14
3.3062e-13
4.83744e-13
1.89983e-13
2.5888e-12
1.34983e-12
4.12861e-12
3.40801e-13
4.97629e-12
4.42953e-11
6.36336e-11
1.85573e-13
1.01182e-14
8.2655e-14
1.09233e-13
1.89983e-13
5.84568e-13
3.37458e-13
1.11201e-12
8.52002e-14
1.49959e-12
4.63932e-14
1.01182e-14
2.06637e-14
1.56046e-14
1.89983e-13
8.35097e-14
8.43644e-14
3.57857e-13
2.13e-14
4.50637e-13
2.31966e-14
1.01182e-14
3.3062e-13
4.83744e-13
1.89983e-13
2.5888e-12
1.34983e-12
4.12861e-12
3.40801e-13
4.97629e-12
4.42953e-11
6.09607e-11
1.85573e-13
1.01182e-14
8.2655e-14
1.09233e-13
1.89983e-13
5.84568e-13
3.37458e-13
1.11201e-12
8.52002e-14
1.49959e-12
4.63932e-14
1.01182e-14
2.06637e-14
1.56046e-14
1.89983e-13
8.35097e-14
8.43644e-14
3.57857e-13
2.13e-14
4.50637e-13
2.31966e-14
1.01182e-14
3.3062e-13
4.83744e-13
1.89983e-13
2.5888e-12
1.34983e-12
4.12861e-12
3.40801e-13
4.97629e-12
4.42953e-11
6.06464e-11
1.85573e-13
1.01182e-14
8.2655e-14
1.09233e-13
1.89983e-13
5.84568e-13
3.37458e-13
1.11201e-12
8.52002e-14
1.49959e-12
4.63932e-14
1.01182e-14
2.06637e-14
1.56046e-14
1.89983e-13
8.35097e-14
8.43644e-14
3.57857e-13
2.13e-14
4.50637e-13
2.31966e-14
1.01182e-14
3.3062e-13
4.83744e-13
1.89983e-13
2.5888e-12
1.34983e-12
4.12861e-12
3.40801e-13
4.97629e-12
4.42953e-11
6.01926e-11
1.85573e-13
1.01182e-14
8.2655e-14
1.09233e-13
1.89983e-13
5.84568e-13
3.37458e-13
1.11201e-12
8.52002e-14
1.49959e-12
4.63932e-14
1.01182e-14
2.06637e-14
1.56046e-14
1.89983e-13
8.35097e-14
8.43644e-14
3.57857e-13
2.13e-14
4.50637e-13
2.31966e-14
1.01182e-14
3.3062e-13
4.83744e-13
1.89983e-13
2.5888e-12
1.34983e-12
4.12861e-12
3.40801e-13
4.97629e-12
4.42953e-11
6.0221e-11
1.85573e-13
1.01182e-14
8.2655e-14
1.09233e-13
1.89983e-13
5.84568e-13
3.37458e-13
1.11201e-12
8.52002e-14
1.49959e-12
4.63932e-14
1.01182e-14
2.06637e-14
1.56046e-14
1.89983e-13
8.35097e-14
8.43644e-14
3.57857e-13
2.13e-14
4.50637e-13
2.31966e-14
1.01182e-14
3.3062e-13
4.83744e-13
1.89983e-13
2.5888e-12
1.34983e-12
4.12861e-12
3.40801e-13
4.97629e-12
4.42953e-11
6.02397e-11
1.85573e-13
1.01182e-14
8.2655e-14
1.09233e-13
1.89983e-13
5.84568e-13
3.37458e-13
1.11201e-12
8.52002e-14
1.49959e-12
4.63932e-14
1.01182e-14
2.06637e-14
1.56046e-14
1.89983e-13
8.35097e-14
8.43644e-14
3.57857e-13
2.13e-14
4.50637e-13
2.31966e-14
1.01182e-14
3.3062e-13
4.83744e-13
1.89983e-13
2.5888e-12
1.34983e-12
4.12861e-12
3.40801e-13
4.97629e-12
4.42953e-11
5.94578e-11
1.85573e-13
1.01182e-14
8.2655e-14
1.09233e-13
1.89983e-13
5.84568e-13
3.37458e-13
1.11201e-12
8.52002e-14
1.49959e-12
4.63932e-14
1.01182e-14
2.06637e-14
1.56046e-14
1.89983e-13
8.35097e-14
8.43644e-14
3.57857e-13
2.13e-14
4.50637e-13
2.31966e-14
1.01182e-14
3.3062e-13
4.83744e-13
1.89983e-13
2.5888e-12
1.34983e-12
4.12861e-12
3.40801e-13
4.97629e-12
4.42953e-11
5.8949e-11
