BEGIN Configuration File: /Users/yash/Projects/wsc-noc-dvfs/final_paper_sims/flatfly/flatfly_uniform_inj0.6_cap0.6/config.cfg

// Final Paper Simulation Config
// Topology: flatfly, Policy: uniform
// Injection Rate: 0.6, Power Cap: 0.6W

// VC Configuration
read_request_begin_vc  = 0;
read_request_end_vc    = 5;
write_reply_begin_vc   = 2;
write_reply_end_vc     = 7;
read_reply_begin_vc    = 8;
read_reply_end_vc      = 12;
write_request_begin_vc = 10;
write_request_end_vc   = 15;
num_vcs     = 16;
vc_buf_size = 8;
wait_for_tail_credit = 0;
vc_allocator = max_size;
sw_allocator = max_size;
alloc_iters  = 2;
credit_delay   = 2;
routing_delay  = 0;
vc_alloc_delay = 1;
sw_alloc_delay = 1;
st_final_delay = 1;
input_speedup     = 1;
output_speedup    = 1;
internal_speedup  = 1.0;

// Detailed simulation settings (longer runs for accuracy)
sim_type = latency;
warmup_periods = 3;
sim_count = 1;
sample_period  = 10000;
max_samples = 15;
use_read_write = 0;
batch_size = 10000;
latency_thres = 5000;
packet_size = 1;

// Topology

topology = flatfly;
subnets = 1;
c  = 4;
k  = 4;
n  = 2;
x  = 4;
y  = 4;
xr = 2;
yr = 2;
limit = 64;
routing_function = ran_min;


// Traffic - 2 classes with different priorities
// Using uniform traffic with configurable injection rate
// Split injection: 30% control (class 0), 70% batch (class 1)
traffic = uniform;
injection_rate = {0.18,0.42};

// 2-class traffic for SLO-aware policies
classes = 2;
class_priority = {1,0};
class_slo = {50,-1};
priority_policy = static_class;

// Orion power model
use_orion = 1;
Vdd = 1.0;
Orion_tr = 0.2;
Orion_Freq = 1e9;
Orion_inport = 5;
Orion_outport = 5;
Orion_bitwidth = 128;
Orion_vc_class = 1;
Orion_IsSharedBuffIn = 0;
Orion_IsSharedBuffOut = 0;
Orion_crossbar_model = 0;
Orion_crsbar_degree = 4;
Orion_Cxbar_Cxpoint = 0;
Orion_trans_type = 0;
Orion_IsInBuff = 1;
Orion_out_buf_size = 0;
Orion_IsOutBuff = 0;
Orion_buff_type = 0;
Orion_in_arb_model = 1;
Orion_out_arb_model = 1;
Orion_allocator_model = 1;
Orion_in_vc_arb_model = 1;
Orion_out_vc_arb_model = 1;
wire_length = 1.0;

// Power cap
power_cap = 0.6;

// DVFS base settings
dvfs_epoch = 10000;
dvfs_log_interval = 10000;
dvfs_freqs = 1.0;
dvfs_voltages = 1.0;
router_domains = 0;

// Policy-specific settings

dvfs_policy = uniform;
dvfs_min_scale = 0.5;
dvfs_max_scale = 1.0;


// Output files
latency_csv = latency.csv;
stall_csv = stalls.csv;
throughput_csv = throughput.csv;
summary_csv = summary.csv;
energy_csv = energy.csv;
epoch_csv = epoch.csv;
dvfs_log = power_log;
output_dir = /Users/yash/Projects/wsc-noc-dvfs/final_paper_sims/flatfly;
run_name = flatfly_uniform_inj0.6_cap0.6;

END Configuration File: /Users/yash/Projects/wsc-noc-dvfs/final_paper_sims/flatfly/flatfly_uniform_inj0.6_cap0.6/config.cfg
 Flat Bufferfly 
 k = 4 n = 2 c = 4
 each switch - total radix =  10
 # of switches = 16
 # of channels = 96
 # of nodes ( size of network ) = 64
Class 0:
Packet latency average = 19.065
	minimum = 6
	maximum = 80
Network latency average = 19.065
	minimum = 6
	maximum = 80
Slowest packet = 119136
Flit latency average = 19.065
	minimum = 6
	maximum = 80
Slowest flit = 119136
Fragmentation average = 0
	minimum = 0
	maximum = 0
Injected packet rate average = 0.180136
	minimum = 0.1711 (at node 2)
	maximum = 0.1881 (at node 36)
Accepted packet rate average = 0.179808
	minimum = 0.168 (at node 17)
	maximum = 0.1897 (at node 27)
Injected flit rate average = 0.180136
	minimum = 0.1711 (at node 2)
	maximum = 0.1881 (at node 36)
Accepted flit rate average= 0.179808
	minimum = 0.168 (at node 17)
	maximum = 0.1897 (at node 27)
Injected packet length average = 1
Accepted packet length average = 1
Total in-flight flits = 210 (0 measured)
Buffer busy stall rate = 0
Buffer conflict stall rate = 0
Buffer full stall rate = 0
Buffer reserved stall rate = 0.0092625
Crossbar conflict stall rate = 1.48762
Class 1:
Packet latency average = 19.4415
	minimum = 6
	maximum = 77
Network latency average = 18.9877
	minimum = 6
	maximum = 75
Slowest packet = 163565
Flit latency average = 18.9877
	minimum = 6
	maximum = 75
Slowest flit = 163565
Fragmentation average = 0
	minimum = 0
	maximum = 0
Injected packet rate average = 0.419633
	minimum = 0.4089 (at node 18)
	maximum = 0.4322 (at node 45)
Accepted packet rate average = 0.418809
	minimum = 0.3994 (at node 31)
	maximum = 0.4391 (at node 28)
Injected flit rate average = 0.419633
	minimum = 0.4089 (at node 18)
	maximum = 0.4322 (at node 45)
Accepted flit rate average= 0.418809
	minimum = 0.3994 (at node 31)
	maximum = 0.4391 (at node 28)
Injected packet length average = 1
Accepted packet length average = 1
Total in-flight flits = 535 (0 measured)
Buffer busy stall rate = 0
Buffer conflict stall rate = 0
Buffer full stall rate = 0
Buffer reserved stall rate = 0.0221187
Crossbar conflict stall rate = 3.39899
latency change    = 1
throughput change = 1
latency change    = 1
throughput change = 1
DVFS epoch t=10000 total_power=0.768033 headroom=-0.168033 avg_power=0.768033 domains{0:freq=1,power=0.768033} routers{0:freq=1,power=0.0480081, 1:freq=1,power=0.0480354, 2:freq=1,power=0.0480292, 3:freq=1,power=0.0479905, 4:freq=1,power=0.0479463, 5:freq=1,power=0.0479847, 6:freq=1,power=0.0480142, 7:freq=1,power=0.0479721, 8:freq=1,power=0.0479596, 9:freq=1,power=0.0479888, 10:freq=1,power=0.0480083, 11:freq=1,power=0.0480085, 12:freq=1,power=0.0480352, 13:freq=1,power=0.04801, 14:freq=1,power=0.0480208, 15:freq=1,power=0.0480217}
Class 0:
Packet latency average = 33.0675
	minimum = 6
	maximum = 421
Network latency average = 33.0675
	minimum = 6
	maximum = 421
Slowest packet = 638639
Flit latency average = 33.0675
	minimum = 6
	maximum = 421
Slowest flit = 638639
Fragmentation average = 0
	minimum = 0
	maximum = 0
Injected packet rate average = 0.179717
	minimum = 0.1728 (at node 41)
	maximum = 0.18625 (at node 7)
Accepted packet rate average = 0.179325
	minimum = 0.17235 (at node 25)
	maximum = 0.1843 (at node 39)
Injected flit rate average = 0.179717
	minimum = 0.1728 (at node 41)
	maximum = 0.18625 (at node 7)
Accepted flit rate average= 0.179325
	minimum = 0.17235 (at node 25)
	maximum = 0.1843 (at node 39)
Injected packet length average = 1
Accepted packet length average = 1
Total in-flight flits = 502 (0 measured)
Buffer busy stall rate = 1.25e-05
Buffer conflict stall rate = 0.00270312
Buffer full stall rate = 0
Buffer reserved stall rate = 0.133934
Crossbar conflict stall rate = 3.16087
Class 1:
Packet latency average = 33.4312
	minimum = 6
	maximum = 416
Network latency average = 32.9815
	minimum = 6
	maximum = 415
Slowest packet = 658743
Flit latency average = 32.9815
	minimum = 6
	maximum = 415
Slowest flit = 658743
Fragmentation average = 0
	minimum = 0
	maximum = 0
Injected packet rate average = 0.419827
	minimum = 0.4125 (at node 35)
	maximum = 0.4282 (at node 50)
Accepted packet rate average = 0.418833
	minimum = 0.4071 (at node 16)
	maximum = 0.43265 (at node 28)
Injected flit rate average = 0.419827
	minimum = 0.4125 (at node 35)
	maximum = 0.4282 (at node 50)
Accepted flit rate average= 0.418833
	minimum = 0.4071 (at node 16)
	maximum = 0.43265 (at node 28)
Injected packet length average = 1
Accepted packet length average = 1
Total in-flight flits = 1278 (0 measured)
Buffer busy stall rate = 1.875e-05
Buffer conflict stall rate = 0.00715
Buffer full stall rate = 0
Buffer reserved stall rate = 0.316856
Crossbar conflict stall rate = 7.33801
latency change    = 0.42345
throughput change = 0.00269239
latency change    = 0.418464
throughput change = 5.59591e-05
DVFS epoch t=20000 total_power=0.607055 headroom=-0.00705489 avg_power=0.687544 domains{0:freq=0.719944,power=0.607055} routers{0:freq=0.719944,power=0.0378927, 1:freq=0.719944,power=0.0379729, 2:freq=0.719944,power=0.0379318, 3:freq=0.719944,power=0.0379421, 4:freq=0.719944,power=0.0379351, 5:freq=0.719944,power=0.0379271, 6:freq=0.719944,power=0.0379251, 7:freq=0.719944,power=0.0379852, 8:freq=0.719944,power=0.0379166, 9:freq=0.719944,power=0.0378925, 10:freq=0.719944,power=0.0380027, 11:freq=0.719944,power=0.0379667, 12:freq=0.719944,power=0.0379497, 13:freq=0.719944,power=0.037971, 14:freq=0.719944,power=0.0379196, 15:freq=0.719944,power=0.0379242}
Class 0:
Packet latency average = 19.6763
	minimum = 6
	maximum = 241
Network latency average = 19.6763
	minimum = 6
	maximum = 241
Slowest packet = 759789
Flit latency average = 19.6763
	minimum = 6
	maximum = 241
Slowest flit = 759789
Fragmentation average = 0
	minimum = 0
	maximum = 0
Injected packet rate average = 0.179016
	minimum = 0.1732 (at node 26)
	maximum = 0.1871 (at node 19)
Accepted packet rate average = 0.179452
	minimum = 0.1713 (at node 36)
	maximum = 0.189 (at node 8)
Injected flit rate average = 0.179016
	minimum = 0.1732 (at node 26)
	maximum = 0.1871 (at node 19)
Accepted flit rate average= 0.179452
	minimum = 0.1713 (at node 36)
	maximum = 0.189 (at node 8)
Injected packet length average = 1
Accepted packet length average = 1
Total in-flight flits = 223 (0 measured)
Buffer busy stall rate = 0
Buffer conflict stall rate = 0
Buffer full stall rate = 0
Buffer reserved stall rate = 0.0131
Crossbar conflict stall rate = 1.54815
Class 1:
Packet latency average = 20.0142
	minimum = 6
	maximum = 260
Network latency average = 19.568
	minimum = 6
	maximum = 259
Slowest packet = 759330
Flit latency average = 19.568
	minimum = 6
	maximum = 259
Slowest flit = 759330
Fragmentation average = 0
	minimum = 0
	maximum = 0
Injected packet rate average = 0.419714
	minimum = 0.4096 (at node 6)
	maximum = 0.4268 (at node 22)
Accepted packet rate average = 0.420883
	minimum = 0.4026 (at node 6)
	maximum = 0.4397 (at node 15)
Injected flit rate average = 0.419714
	minimum = 0.4096 (at node 6)
	maximum = 0.4268 (at node 22)
Accepted flit rate average= 0.420883
	minimum = 0.4026 (at node 6)
	maximum = 0.4397 (at node 15)
Injected packet length average = 1
Accepted packet length average = 1
Total in-flight flits = 534 (0 measured)
Buffer busy stall rate = 0
Buffer conflict stall rate = 0
Buffer full stall rate = 0
Buffer reserved stall rate = 0.0294875
Crossbar conflict stall rate = 3.56734
latency change    = 0.680574
throughput change = 0.000705274
latency change    = 0.670378
throughput change = 0.00487071
Warmed up ...Time used is 30000 cycles
DVFS epoch t=30000 total_power=0.798145 headroom=-0.198145 avg_power=0.724411 domains{0:freq=0.988242,power=0.798145} routers{0:freq=0.988242,power=0.0499257, 1:freq=0.988242,power=0.0498687, 2:freq=0.988242,power=0.0498486, 3:freq=0.988242,power=0.0498661, 4:freq=0.988242,power=0.0499135, 5:freq=0.988242,power=0.049864, 6:freq=0.988242,power=0.049884, 7:freq=0.988242,power=0.0499029, 8:freq=0.988242,power=0.049887, 9:freq=0.988242,power=0.0498737, 10:freq=0.988242,power=0.0499008, 11:freq=0.988242,power=0.0499056, 12:freq=0.988242,power=0.0499024, 13:freq=0.988242,power=0.0498896, 14:freq=0.988242,power=0.0498496, 15:freq=0.988242,power=0.0498624}
Class 0:
Packet latency average = 88.3175
	minimum = 6
	maximum = 952
Network latency average = 88.3175
	minimum = 6
	maximum = 952
Slowest packet = 1290428
Flit latency average = 88.1946
	minimum = 6
	maximum = 952
Slowest flit = 1290428
Fragmentation average = 0
	minimum = 0
	maximum = 0
Injected packet rate average = 0.180638
	minimum = 0.171 (at node 61)
	maximum = 0.1922 (at node 23)
Accepted packet rate average = 0.179145
	minimum = 0.171 (at node 32)
	maximum = 0.1908 (at node 14)
Injected flit rate average = 0.180638
	minimum = 0.171 (at node 61)
	maximum = 0.1922 (at node 23)
Accepted flit rate average= 0.179145
	minimum = 0.171 (at node 32)
	maximum = 0.1908 (at node 14)
Injected packet length average = 1
Accepted packet length average = 1
Total in-flight flits = 1178 (1178 measured)
Buffer busy stall rate = 0.00516875
Buffer conflict stall rate = 0.192137
Buffer full stall rate = 0
Buffer reserved stall rate = 0.994019
Crossbar conflict stall rate = 8.03736
Class 1:
Packet latency average = 88.0519
	minimum = 6
	maximum = 955
Network latency average = 87.596
	minimum = 6
	maximum = 954
Slowest packet = 1419708
Flit latency average = 87.4706
	minimum = 6
	maximum = 954
Slowest flit = 1419708
Fragmentation average = 0
	minimum = 0
	maximum = 0
Injected packet rate average = 0.419822
	minimum = 0.4085 (at node 53)
	maximum = 0.4275 (at node 59)
Accepted packet rate average = 0.416602
	minimum = 0.403 (at node 14)
	maximum = 0.4355 (at node 38)
Injected flit rate average = 0.419822
	minimum = 0.4085 (at node 53)
	maximum = 0.4275 (at node 59)
Accepted flit rate average= 0.416602
	minimum = 0.403 (at node 14)
	maximum = 0.4355 (at node 38)
Injected packet length average = 1
Accepted packet length average = 1
Total in-flight flits = 2594 (2594 measured)
Buffer busy stall rate = 0.0111313
Buffer conflict stall rate = 0.444431
Buffer full stall rate = 0
Buffer reserved stall rate = 2.28504
Crossbar conflict stall rate = 18.5308
latency change    = 0.77721
throughput change = 0.00170951
latency change    = 0.7727
throughput change = 0.0102766
DVFS epoch t=40000 total_power=0.599933 headroom=6.68608e-05 avg_power=0.693292 domains{0:freq=0.669759,power=0.599933} routers{0:freq=0.669759,power=0.0375435, 1:freq=0.669759,power=0.0374902, 2:freq=0.669759,power=0.0375027, 3:freq=0.669759,power=0.037475, 4:freq=0.669759,power=0.0375267, 5:freq=0.669759,power=0.0374753, 6:freq=0.669759,power=0.0374923, 7:freq=0.669759,power=0.0375783, 8:freq=0.669759,power=0.0374067, 9:freq=0.669759,power=0.0375226, 10:freq=0.669759,power=0.0375283, 11:freq=0.669759,power=0.0374704, 12:freq=0.669759,power=0.0374835, 13:freq=0.669759,power=0.0375013, 14:freq=0.669759,power=0.0374786, 15:freq=0.669759,power=0.0374579}
Class 0:
Packet latency average = 54.3302
	minimum = 6
	maximum = 952
Network latency average = 54.3302
	minimum = 6
	maximum = 952
Slowest packet = 1290428
Flit latency average = 54.3019
	minimum = 6
	maximum = 952
Slowest flit = 1290428
Fragmentation average = 0
	minimum = 0
	maximum = 0
Injected packet rate average = 0.180245
	minimum = 0.17345 (at node 40)
	maximum = 0.1879 (at node 36)
Accepted packet rate average = 0.18026
	minimum = 0.1726 (at node 17)
	maximum = 0.1887 (at node 9)
Injected flit rate average = 0.180245
	minimum = 0.17345 (at node 40)
	maximum = 0.1879 (at node 36)
Accepted flit rate average= 0.18026
	minimum = 0.1726 (at node 17)
	maximum = 0.1887 (at node 9)
Injected packet length average = 1
Accepted packet length average = 1
Total in-flight flits = 203 (203 measured)
Buffer busy stall rate = 0.00264063
Buffer conflict stall rate = 0.0975812
Buffer full stall rate = 0
Buffer reserved stall rate = 0.519197
Crossbar conflict stall rate = 4.8208
Class 1:
Packet latency average = 54.2932
	minimum = 6
	maximum = 955
Network latency average = 53.842
	minimum = 6
	maximum = 954
Slowest packet = 1419708
Flit latency average = 53.8133
	minimum = 6
	maximum = 954
Slowest flit = 1419708
Fragmentation average = 0
	minimum = 0
	maximum = 0
Injected packet rate average = 0.419555
	minimum = 0.414 (at node 26)
	maximum = 0.42595 (at node 1)
Accepted packet rate average = 0.419595
	minimum = 0.40725 (at node 40)
	maximum = 0.4302 (at node 57)
Injected flit rate average = 0.419555
	minimum = 0.414 (at node 26)
	maximum = 0.42595 (at node 1)
Accepted flit rate average= 0.419595
	minimum = 0.40725 (at node 40)
	maximum = 0.4302 (at node 57)
Injected packet length average = 1
Accepted packet length average = 1
Total in-flight flits = 478 (478 measured)
Buffer busy stall rate = 0.00570312
Buffer conflict stall rate = 0.225931
Buffer full stall rate = 0
Buffer reserved stall rate = 1.19047
Crossbar conflict stall rate = 11.0928
latency change    = 0.62557
throughput change = 0.00618464
latency change    = 0.621786
throughput change = 0.007133
DVFS epoch t=50000 total_power=0.844257 headroom=-0.244257 avg_power=0.723485 domains{0:freq=1,power=0.844257} routers{0:freq=1,power=0.0527494, 1:freq=1,power=0.0527754, 2:freq=1,power=0.0528119, 3:freq=1,power=0.0527551, 4:freq=1,power=0.0527331, 5:freq=1,power=0.0527741, 6:freq=1,power=0.05274, 7:freq=1,power=0.0527975, 8:freq=1,power=0.0527212, 9:freq=1,power=0.052755, 10:freq=1,power=0.0527739, 11:freq=1,power=0.0527323, 12:freq=1,power=0.0528011, 13:freq=1,power=0.0528008, 14:freq=1,power=0.0527702, 15:freq=1,power=0.0527663}
Class 0:
Packet latency average = 153.034
	minimum = 6
	maximum = 6310
Network latency average = 145.112
	minimum = 6
	maximum = 6310
Slowest packet = 2049636
Flit latency average = 145.033
	minimum = 6
	maximum = 6310
Slowest flit = 2049636
Fragmentation average = 0
	minimum = 0
	maximum = 0
Injected packet rate average = 0.179095
	minimum = 0.1573 (at node 15)
	maximum = 0.187533 (at node 41)
Accepted packet rate average = 0.176419
	minimum = 0.170767 (at node 38)
	maximum = 0.183033 (at node 10)
Injected flit rate average = 0.179095
	minimum = 0.1573 (at node 15)
	maximum = 0.187533 (at node 41)
Accepted flit rate average= 0.176419
	minimum = 0.170767 (at node 38)
	maximum = 0.183033 (at node 10)
Injected packet length average = 1
Accepted packet length average = 1
Total in-flight flits = 5382 (5382 measured)
Buffer busy stall rate = 1.11515
Buffer conflict stall rate = 1.66226
Buffer full stall rate = 0.232285
Buffer reserved stall rate = 1.04844
Crossbar conflict stall rate = 6.05483
Class 1:
Packet latency average = 196.564
	minimum = 6
	maximum = 5962
Network latency average = 112.96
	minimum = 6
	maximum = 5626
Slowest packet = 2051140
Flit latency average = 112.895
	minimum = 6
	maximum = 5626
Slowest flit = 2056630
Fragmentation average = 0
	minimum = 0
	maximum = 0
Injected packet rate average = 0.379462
	minimum = 0.326167 (at node 15)
	maximum = 0.420067 (at node 1)
Accepted packet rate average = 0.377154
	minimum = 0.368033 (at node 40)
	maximum = 0.3846 (at node 38)
Injected flit rate average = 0.379462
	minimum = 0.326167 (at node 15)
	maximum = 0.420067 (at node 1)
Accepted flit rate average= 0.377154
	minimum = 0.368033 (at node 40)
	maximum = 0.3846 (at node 38)
Injected packet length average = 1
Accepted packet length average = 1
Total in-flight flits = 5013 (5013 measured)
Buffer busy stall rate = 0.8392
Buffer conflict stall rate = 2.08194
Buffer full stall rate = 0.181983
Buffer reserved stall rate = 1.85483
Crossbar conflict stall rate = 12.955
latency change    = 0.644981
throughput change = 0.0217713
latency change    = 0.723789
throughput change = 0.112529
DVFS epoch t=60000 total_power=0.538064 headroom=0.0619359 avg_power=0.692581 domains{0:freq=0.592904,power=0.538064} routers{0:freq=0.592904,power=0.0340586, 1:freq=0.592904,power=0.0335602, 2:freq=0.592904,power=0.0337461, 3:freq=0.592904,power=0.0330707, 4:freq=0.592904,power=0.0338877, 5:freq=0.592904,power=0.0340502, 6:freq=0.592904,power=0.0334317, 7:freq=0.592904,power=0.0333093, 8:freq=0.592904,power=0.0337522, 9:freq=0.592904,power=0.0334773, 10:freq=0.592904,power=0.0330304, 11:freq=0.592904,power=0.0339698, 12:freq=0.592904,power=0.0341037, 13:freq=0.592904,power=0.0339966, 14:freq=0.592904,power=0.0332444, 15:freq=0.592904,power=0.0333754}
Class 0:
Packet latency average = 212.94
	minimum = 6
	maximum = 10112
Network latency average = 157.335
	minimum = 6
	maximum = 9558
Slowest packet = 2109623
Flit latency average = 157.271
	minimum = 6
	maximum = 9558
Slowest flit = 2109623
Fragmentation average = 0
	minimum = 0
	maximum = 0
Injected packet rate average = 0.180366
	minimum = 0.17525 (at node 62)
	maximum = 0.186075 (at node 41)
Accepted packet rate average = 0.180073
	minimum = 0.175 (at node 17)
	maximum = 0.1854 (at node 10)
Injected flit rate average = 0.180366
	minimum = 0.17525 (at node 62)
	maximum = 0.186075 (at node 41)
Accepted flit rate average= 0.180073
	minimum = 0.175 (at node 17)
	maximum = 0.1854 (at node 10)
Injected packet length average = 1
Accepted packet length average = 1
Total in-flight flits = 973 (973 measured)
Buffer busy stall rate = 1.83009
Buffer conflict stall rate = 2.42451
Buffer full stall rate = 0.357358
Buffer reserved stall rate = 1.23581
Crossbar conflict stall rate = 5.95891
Class 1:
Packet latency average = 770.905
	minimum = 6
	maximum = 16392
Network latency average = 118.143
	minimum = 6
	maximum = 8172
Slowest packet = 2054056
Flit latency average = 118.095
	minimum = 6
	maximum = 8172
Slowest flit = 2054056
Fragmentation average = 0
	minimum = 0
	maximum = 0
Injected packet rate average = 0.404213
	minimum = 0.24665 (at node 15)
	maximum = 0.425425 (at node 12)
Accepted packet rate average = 0.403418
	minimum = 0.39675 (at node 14)
	maximum = 0.410375 (at node 24)
Injected flit rate average = 0.404213
	minimum = 0.24665 (at node 15)
	maximum = 0.425425 (at node 12)
Accepted flit rate average= 0.403418
	minimum = 0.39675 (at node 14)
	maximum = 0.410375 (at node 24)
Injected packet length average = 1
Accepted packet length average = 1
Total in-flight flits = 2569 (2569 measured)
Buffer busy stall rate = 1.78767
Buffer conflict stall rate = 3.32563
Buffer full stall rate = 0.3982
Buffer reserved stall rate = 2.36613
Crossbar conflict stall rate = 13.8772
latency change    = 0.281326
throughput change = 0.0202905
latency change    = 0.745022
throughput change = 0.0651054
DVFS epoch t=70000 total_power=0.899018 headroom=-0.299018 avg_power=0.722072 domains{0:freq=1,power=0.899018} routers{0:freq=1,power=0.0559626, 1:freq=1,power=0.0560674, 2:freq=1,power=0.0563233, 3:freq=1,power=0.0553468, 4:freq=1,power=0.0562928, 5:freq=1,power=0.0562184, 6:freq=1,power=0.0565883, 7:freq=1,power=0.0562199, 8:freq=1,power=0.0562645, 9:freq=1,power=0.0565278, 10:freq=1,power=0.0560768, 11:freq=1,power=0.0558109, 12:freq=1,power=0.0560876, 13:freq=1,power=0.0561663, 14:freq=1,power=0.056939, 15:freq=1,power=0.0561252}
Class 0:
Packet latency average = 271.287
	minimum = 6
	maximum = 10112
Network latency average = 212.351
	minimum = 6
	maximum = 9723
Slowest packet = 2109623
Flit latency average = 212.276
	minimum = 6
	maximum = 9723
Slowest flit = 2594064
Fragmentation average = 0
	minimum = 0
	maximum = 0
Injected packet rate average = 0.17759
	minimum = 0.14598 (at node 15)
	maximum = 0.18496 (at node 41)
Accepted packet rate average = 0.175825
	minimum = 0.1718 (at node 17)
	maximum = 0.18092 (at node 53)
Injected flit rate average = 0.17759
	minimum = 0.14598 (at node 15)
	maximum = 0.18496 (at node 41)
Accepted flit rate average= 0.175825
	minimum = 0.1718 (at node 17)
	maximum = 0.18092 (at node 53)
Injected packet length average = 1
Accepted packet length average = 1
Total in-flight flits = 5884 (5884 measured)
Buffer busy stall rate = 2.43427
Buffer conflict stall rate = 3.05664
Buffer full stall rate = 0.507241
Buffer reserved stall rate = 1.35829
Crossbar conflict stall rate = 6.05769
Class 1:
Packet latency average = 947.932
	minimum = 6
	maximum = 24812
Network latency average = 144.055
	minimum = 6
	maximum = 9276
Slowest packet = 2054056
Flit latency average = 144
	minimum = 6
	maximum = 9276
Slowest flit = 2598818
Fragmentation average = 0
	minimum = 0
	maximum = 0
Injected packet rate average = 0.361681
	minimum = 0.19732 (at node 15)
	maximum = 0.39944 (at node 2)
Accepted packet rate average = 0.360662
	minimum = 0.35426 (at node 40)
	maximum = 0.36646 (at node 6)
Injected flit rate average = 0.361681
	minimum = 0.19732 (at node 15)
	maximum = 0.39944 (at node 2)
Accepted flit rate average= 0.360662
	minimum = 0.35426 (at node 40)
	maximum = 0.36646 (at node 6)
Injected packet length average = 1
Accepted packet length average = 1
Total in-flight flits = 3839 (3839 measured)
Buffer busy stall rate = 1.92918
Buffer conflict stall rate = 3.47872
Buffer full stall rate = 0.455165
Buffer reserved stall rate = 2.25038
Crossbar conflict stall rate = 12.8419
latency change    = 0.215075
throughput change = 0.0241588
latency change    = 0.18675
throughput change = 0.118551
DVFS epoch t=80000 total_power=0.463794 headroom=0.136206 avg_power=0.689787 domains{0:freq=0.501637,power=0.463794} routers{0:freq=0.501637,power=0.0290647, 1:freq=0.501637,power=0.0294581, 2:freq=0.501637,power=0.0285419, 3:freq=0.501637,power=0.0281308, 4:freq=0.501637,power=0.0293909, 5:freq=0.501637,power=0.0289157, 6:freq=0.501637,power=0.02843, 7:freq=0.501637,power=0.0294678, 8:freq=0.501637,power=0.0294455, 9:freq=0.501637,power=0.0292158, 10:freq=0.501637,power=0.0286344, 11:freq=0.501637,power=0.0282098, 12:freq=0.501637,power=0.0294605, 13:freq=0.501637,power=0.0295542, 14:freq=0.501637,power=0.0291946, 15:freq=0.501637,power=0.0286794}
Class 0:
Packet latency average = 362
	minimum = 6
	maximum = 20516
Network latency average = 222.891
	minimum = 6
	maximum = 20204
Slowest packet = 2621186
Flit latency average = 222.827
	minimum = 6
	maximum = 20204
Slowest flit = 2621001
Fragmentation average = 0
	minimum = 0
	maximum = 0
Injected packet rate average = 0.178722
	minimum = 0.1296 (at node 15)
	maximum = 0.184283 (at node 36)
Accepted packet rate average = 0.178289
	minimum = 0.174033 (at node 42)
	maximum = 0.181883 (at node 53)
Injected flit rate average = 0.178722
	minimum = 0.1296 (at node 15)
	maximum = 0.184283 (at node 36)
Accepted flit rate average= 0.178289
	minimum = 0.174033 (at node 42)
	maximum = 0.181883 (at node 53)
Injected packet length average = 1
Accepted packet length average = 1
Total in-flight flits = 1889 (1889 measured)
Buffer busy stall rate = 3.14983
Buffer conflict stall rate = 3.69782
Buffer full stall rate = 0.625911
Buffer reserved stall rate = 1.45531
Crossbar conflict stall rate = 6.08932
Class 1:
Packet latency average = 1647.01
	minimum = 6
	maximum = 36497
Network latency average = 146.469
	minimum = 6
	maximum = 21025
Slowest packet = 2054056
Flit latency average = 146.424
	minimum = 6
	maximum = 21025
Slowest flit = 2602339
Fragmentation average = 0
	minimum = 0
	maximum = 0
Injected packet rate average = 0.379468
	minimum = 0.164433 (at node 15)
	maximum = 0.423017 (at node 4)
Accepted packet rate average = 0.378545
	minimum = 0.373333 (at node 4)
	maximum = 0.384 (at node 24)
Injected flit rate average = 0.379468
	minimum = 0.164433 (at node 15)
	maximum = 0.423017 (at node 4)
Accepted flit rate average= 0.378545
	minimum = 0.373333 (at node 4)
	maximum = 0.384 (at node 24)
Injected packet length average = 1
Accepted packet length average = 1
Total in-flight flits = 4089 (4089 measured)
Buffer busy stall rate = 2.60742
Buffer conflict stall rate = 4.3064
Buffer full stall rate = 0.671989
Buffer reserved stall rate = 2.5857
Crossbar conflict stall rate = 13.6936
latency change    = 0.250588
throughput change = 0.0138203
latency change    = 0.424454
throughput change = 0.0472434
DVFS epoch t=90000 total_power=0.933357 headroom=-0.333357 avg_power=0.716851 domains{0:freq=1,power=0.933357} routers{0:freq=1,power=0.058884, 1:freq=1,power=0.0587934, 2:freq=1,power=0.0580764, 3:freq=1,power=0.0569671, 4:freq=1,power=0.0586736, 5:freq=1,power=0.0580504, 6:freq=1,power=0.056941, 7:freq=1,power=0.0587597, 8:freq=1,power=0.0588458, 9:freq=1,power=0.0588436, 10:freq=1,power=0.0585721, 11:freq=1,power=0.0578162, 12:freq=1,power=0.0588618, 13:freq=1,power=0.0588029, 14:freq=1,power=0.0586466, 15:freq=1,power=0.0578221}
Class 0:
Packet latency average = 414.489
	minimum = 6
	maximum = 26758
Network latency average = 258.804
	minimum = 6
	maximum = 20962
Slowest packet = 2620910
Flit latency average = 258.738
	minimum = 6
	maximum = 20962
Slowest flit = 2620910
Fragmentation average = 0
	minimum = 0
	maximum = 0
Injected packet rate average = 0.176656
	minimum = 0.1144 (at node 15)
	maximum = 0.184629 (at node 23)
Accepted packet rate average = 0.175434
	minimum = 0.172129 (at node 42)
	maximum = 0.1781 (at node 24)
Injected flit rate average = 0.176656
	minimum = 0.1144 (at node 15)
	maximum = 0.184629 (at node 23)
Accepted flit rate average= 0.175434
	minimum = 0.172129 (at node 42)
	maximum = 0.1781 (at node 24)
Injected packet length average = 1
Accepted packet length average = 1
Total in-flight flits = 5708 (5708 measured)
Buffer busy stall rate = 3.51496
Buffer conflict stall rate = 4.00781
Buffer full stall rate = 0.735047
Buffer reserved stall rate = 1.5147
Crossbar conflict stall rate = 6.06066
Class 1:
Packet latency average = 1828.58
	minimum = 6
	maximum = 36740
Network latency average = 162.208
	minimum = 6
	maximum = 21271
Slowest packet = 2054056
Flit latency average = 162.161
	minimum = 6
	maximum = 21271
Slowest flit = 2602563
Fragmentation average = 0
	minimum = 0
	maximum = 0
Injected packet rate average = 0.350155
	minimum = 0.140943 (at node 15)
	maximum = 0.407771 (at node 19)
Accepted packet rate average = 0.349343
	minimum = 0.344771 (at node 4)
	maximum = 0.354071 (at node 58)
Injected flit rate average = 0.350155
	minimum = 0.140943 (at node 15)
	maximum = 0.407771 (at node 19)
Accepted flit rate average= 0.349343
	minimum = 0.344771 (at node 4)
	maximum = 0.354071 (at node 58)
Injected packet length average = 1
Accepted packet length average = 1
Total in-flight flits = 4213 (4213 measured)
Buffer busy stall rate = 2.60137
Buffer conflict stall rate = 4.24153
Buffer full stall rate = 0.678546
Buffer reserved stall rate = 2.44139
Crossbar conflict stall rate = 12.8115
latency change    = 0.126635
throughput change = 0.0162762
latency change    = 0.0992962
throughput change = 0.0835918
DVFS epoch t=100000 total_power=0.477116 headroom=0.122884 avg_power=0.692877 domains{0:freq=0.5,power=0.477116} routers{0:freq=0.5,power=0.0304632, 1:freq=0.5,power=0.0305357, 2:freq=0.5,power=0.0295427, 3:freq=0.5,power=0.0292637, 4:freq=0.5,power=0.0299652, 5:freq=0.5,power=0.030461, 6:freq=0.5,power=0.0294308, 7:freq=0.5,power=0.0291168, 8:freq=0.5,power=0.0303181, 9:freq=0.5,power=0.0300555, 10:freq=0.5,power=0.0294097, 11:freq=0.5,power=0.0289979, 12:freq=0.5,power=0.0302371, 13:freq=0.5,power=0.0298206, 14:freq=0.5,power=0.0303398, 15:freq=0.5,power=0.0291585}
Class 0:
Packet latency average = 579.594
	minimum = 6
	maximum = 35227
Network latency average = 264.06
	minimum = 6
	maximum = 25533
Slowest packet = 2620910
Flit latency average = 264.001
	minimum = 6
	maximum = 25533
Slowest flit = 2896368
Fragmentation average = 0
	minimum = 0
	maximum = 0
Injected packet rate average = 0.177572
	minimum = 0.129688 (at node 15)
	maximum = 0.183888 (at node 23)
Accepted packet rate average = 0.177178
	minimum = 0.174 (at node 38)
	maximum = 0.179712 (at node 24)
Injected flit rate average = 0.177572
	minimum = 0.129688 (at node 15)
	maximum = 0.183888 (at node 23)
Accepted flit rate average= 0.177178
	minimum = 0.174 (at node 38)
	maximum = 0.179712 (at node 24)
Injected packet length average = 1
Accepted packet length average = 1
Total in-flight flits = 2250 (2250 measured)
Buffer busy stall rate = 4.13558
Buffer conflict stall rate = 4.42676
Buffer full stall rate = 0.856027
Buffer reserved stall rate = 1.56761
Crossbar conflict stall rate = 6.01704
Class 1:
Packet latency average = 2537.34
	minimum = 6
	maximum = 44724
Network latency average = 161.896
	minimum = 6
	maximum = 21271
Slowest packet = 2054056
Flit latency average = 161.856
	minimum = 6
	maximum = 21271
Slowest flit = 2602563
Fragmentation average = 0
	minimum = 0
	maximum = 0
Injected packet rate average = 0.360736
	minimum = 0.123325 (at node 15)
	maximum = 0.423337 (at node 4)
Accepted packet rate average = 0.360073
	minimum = 0.355575 (at node 62)
	maximum = 0.363963 (at node 22)
Injected flit rate average = 0.360736
	minimum = 0.123325 (at node 15)
	maximum = 0.423337 (at node 4)
Accepted flit rate average= 0.360073
	minimum = 0.355575 (at node 62)
	maximum = 0.363963 (at node 22)
Injected packet length average = 1
Accepted packet length average = 1
Total in-flight flits = 3938 (3938 measured)
Buffer busy stall rate = 3.14003
Buffer conflict stall rate = 4.6982
Buffer full stall rate = 0.853628
Buffer reserved stall rate = 2.59146
Crossbar conflict stall rate = 13.1761
latency change    = 0.284863
throughput change = 0.00984104
latency change    = 0.279332
throughput change = 0.0297994
DVFS epoch t=110000 total_power=0.962692 headroom=-0.362692 avg_power=0.717406 domains{0:freq=1,power=0.962692} routers{0:freq=1,power=0.0609064, 1:freq=1,power=0.0608941, 2:freq=1,power=0.0606659, 3:freq=1,power=0.0598893, 4:freq=1,power=0.0610115, 5:freq=1,power=0.0611565, 6:freq=1,power=0.0596642, 7:freq=1,power=0.0589728, 8:freq=1,power=0.0606562, 9:freq=1,power=0.0605457, 10:freq=1,power=0.0594377, 11:freq=1,power=0.0588099, 12:freq=1,power=0.0606083, 13:freq=1,power=0.0596734, 14:freq=1,power=0.0609563, 15:freq=1,power=0.058844}
Class 0:
Packet latency average = 639.995
	minimum = 6
	maximum = 35227
Network latency average = 287.753
	minimum = 6
	maximum = 25533
Slowest packet = 2620910
Flit latency average = 287.695
	minimum = 6
	maximum = 25533
Slowest flit = 2896368
Fragmentation average = 0
	minimum = 0
	maximum = 0
Injected packet rate average = 0.176424
	minimum = 0.118756 (at node 15)
	maximum = 0.183044 (at node 23)
Accepted packet rate average = 0.175448
	minimum = 0.172944 (at node 42)
	maximum = 0.177822 (at node 15)
Injected flit rate average = 0.176424
	minimum = 0.118756 (at node 15)
	maximum = 0.183044 (at node 23)
Accepted flit rate average= 0.175448
	minimum = 0.172944 (at node 42)
	maximum = 0.177822 (at node 15)
Injected packet length average = 1
Accepted packet length average = 1
Total in-flight flits = 5857 (5857 measured)
Buffer busy stall rate = 4.28996
Buffer conflict stall rate = 4.61573
Buffer full stall rate = 0.911258
Buffer reserved stall rate = 1.62047
Crossbar conflict stall rate = 6.01238
Class 1:
Packet latency average = 2707.52
	minimum = 6
	maximum = 47637
Network latency average = 173.869
	minimum = 6
	maximum = 21271
Slowest packet = 2054056
Flit latency average = 173.828
	minimum = 6
	maximum = 21271
Slowest flit = 2602563
Fragmentation average = 0
	minimum = 0
	maximum = 0
Injected packet rate average = 0.340237
	minimum = 0.109622 (at node 15)
	maximum = 0.411544 (at node 1)
Accepted packet rate average = 0.339674
	minimum = 0.335522 (at node 4)
	maximum = 0.343189 (at node 50)
Injected flit rate average = 0.340237
	minimum = 0.109622 (at node 15)
	maximum = 0.411544 (at node 1)
Accepted flit rate average= 0.339674
	minimum = 0.335522 (at node 4)
	maximum = 0.343189 (at node 50)
Injected packet length average = 1
Accepted packet length average = 1
Total in-flight flits = 3820 (3820 measured)
Buffer busy stall rate = 3.05728
Buffer conflict stall rate = 4.61535
Buffer full stall rate = 0.839335
Buffer reserved stall rate = 2.49918
Crossbar conflict stall rate = 12.5486
latency change    = 0.0943775
throughput change = 0.00985832
latency change    = 0.0628533
throughput change = 0.060056
DVFS epoch t=120000 total_power=0.497392 headroom=0.102608 avg_power=0.699071 domains{0:freq=0.5,power=0.497392} routers{0:freq=0.5,power=0.0317399, 1:freq=0.5,power=0.0315068, 2:freq=0.5,power=0.0308481, 3:freq=0.5,power=0.0304789, 4:freq=0.5,power=0.0315356, 5:freq=0.5,power=0.0314093, 6:freq=0.5,power=0.0309648, 7:freq=0.5,power=0.0303084, 8:freq=0.5,power=0.0316741, 9:freq=0.5,power=0.031302, 10:freq=0.5,power=0.0306837, 11:freq=0.5,power=0.0303797, 12:freq=0.5,power=0.0314268, 13:freq=0.5,power=0.0310557, 14:freq=0.5,power=0.0316573, 15:freq=0.5,power=0.030421}
Class 0:
Packet latency average = 798.515
	minimum = 6
	maximum = 38657
Network latency average = 286.809
	minimum = 6
	maximum = 25533
Slowest packet = 2620910
Flit latency average = 286.758
	minimum = 6
	maximum = 25533
Slowest flit = 2896368
Fragmentation average = 0
	minimum = 0
	maximum = 0
Injected packet rate average = 0.177598
	minimum = 0.12712 (at node 31)
	maximum = 0.18291 (at node 23)
Accepted packet rate average = 0.177314
	minimum = 0.175 (at node 38)
	maximum = 0.17955 (at node 15)
Injected flit rate average = 0.177598
	minimum = 0.12712 (at node 31)
	maximum = 0.18291 (at node 23)
Accepted flit rate average= 0.177314
	minimum = 0.175 (at node 38)
	maximum = 0.17955 (at node 15)
Injected packet length average = 1
Accepted packet length average = 1
Total in-flight flits = 2047 (2047 measured)
Buffer busy stall rate = 4.58638
Buffer conflict stall rate = 4.85552
Buffer full stall rate = 0.961608
Buffer reserved stall rate = 1.66298
Crossbar conflict stall rate = 6.036
Class 1:
Packet latency average = 3561.54
	minimum = 6
	maximum = 65658
Network latency average = 171.801
	minimum = 6
	maximum = 32840
Slowest packet = 2054056
Flit latency average = 171.766
	minimum = 6
	maximum = 32840
Slowest flit = 3240938
Fragmentation average = 0
	minimum = 0
	maximum = 0
Injected packet rate average = 0.351762
	minimum = 0.09866 (at node 15)
	maximum = 0.42265 (at node 1)
Accepted packet rate average = 0.351219
	minimum = 0.34683 (at node 40)
	maximum = 0.35483 (at node 24)
Injected flit rate average = 0.351762
	minimum = 0.09866 (at node 15)
	maximum = 0.42265 (at node 1)
Accepted flit rate average= 0.351219
	minimum = 0.34683 (at node 40)
	maximum = 0.35483 (at node 24)
Injected packet length average = 1
Accepted packet length average = 1
Total in-flight flits = 4014 (4014 measured)
Buffer busy stall rate = 3.35903
Buffer conflict stall rate = 4.98459
Buffer full stall rate = 0.947662
Buffer reserved stall rate = 2.66304
Crossbar conflict stall rate = 13.0058
latency change    = 0.198518
throughput change = 0.0105219
latency change    = 0.239789
throughput change = 0.0328734
DVFS epoch t=130000 total_power=1.00645 headroom=-0.406453 avg_power=0.722716 domains{0:freq=1,power=1.00645} routers{0:freq=1,power=0.0633667, 1:freq=1,power=0.0634991, 2:freq=1,power=0.0629373, 3:freq=1,power=0.0623839, 4:freq=1,power=0.0632013, 5:freq=1,power=0.0633993, 6:freq=1,power=0.0625846, 7:freq=1,power=0.0615087, 8:freq=1,power=0.0634088, 9:freq=1,power=0.0634826, 10:freq=1,power=0.0634091, 11:freq=1,power=0.0618214, 12:freq=1,power=0.0634139, 13:freq=1,power=0.0628748, 14:freq=1,power=0.0634941, 15:freq=1,power=0.0616676}
Class 0:
Packet latency average = 827.305
	minimum = 6
	maximum = 38657
Network latency average = 303.058
	minimum = 6
	maximum = 25533
Slowest packet = 2620910
Flit latency average = 303.007
	minimum = 6
	maximum = 25533
Slowest flit = 2896368
Fragmentation average = 0
	minimum = 0
	maximum = 0
Injected packet rate average = 0.176338
	minimum = 0.119109 (at node 31)
	maximum = 0.182236 (at node 43)
Accepted packet rate average = 0.175482
	minimum = 0.172791 (at node 58)
	maximum = 0.177645 (at node 45)
Injected flit rate average = 0.176338
	minimum = 0.119109 (at node 31)
	maximum = 0.182236 (at node 43)
Accepted flit rate average= 0.175482
	minimum = 0.172791 (at node 58)
	maximum = 0.177645 (at node 45)
Injected packet length average = 1
Accepted packet length average = 1
Total in-flight flits = 6276 (6276 measured)
Buffer busy stall rate = 4.71068
Buffer conflict stall rate = 4.94182
Buffer full stall rate = 0.996611
Buffer reserved stall rate = 1.65853
Crossbar conflict stall rate = 6.02214
Class 1:
Packet latency average = 3718.99
	minimum = 6
	maximum = 71069
Network latency average = 180.719
	minimum = 6
	maximum = 32840
Slowest packet = 2054056
Flit latency average = 180.684
	minimum = 6
	maximum = 32840
Slowest flit = 3240938
Fragmentation average = 0
	minimum = 0
	maximum = 0
Injected packet rate average = 0.33545
	minimum = 0.0896909 (at node 15)
	maximum = 0.412918 (at node 1)
Accepted packet rate average = 0.335043
	minimum = 0.330973 (at node 40)
	maximum = 0.338818 (at node 53)
Injected flit rate average = 0.33545
	minimum = 0.0896909 (at node 15)
	maximum = 0.412918 (at node 1)
Accepted flit rate average= 0.335043
	minimum = 0.330973 (at node 40)
	maximum = 0.338818 (at node 53)
Injected packet length average = 1
Accepted packet length average = 1
Total in-flight flits = 3446 (3446 measured)
Buffer busy stall rate = 3.28002
Buffer conflict stall rate = 4.85203
Buffer full stall rate = 0.931553
Buffer reserved stall rate = 2.54223
Crossbar conflict stall rate = 12.5002
latency change    = 0.0348
throughput change = 0.0104361
latency change    = 0.0423365
throughput change = 0.0482814
DVFS epoch t=140000 total_power=0.514346 headroom=0.085654 avg_power=0.707833 domains{0:freq=0.5,power=0.514346} routers{0:freq=0.5,power=0.0327713, 1:freq=0.5,power=0.0323764, 2:freq=0.5,power=0.0317576, 3:freq=0.5,power=0.0315186, 4:freq=0.5,power=0.0324418, 5:freq=0.5,power=0.0327805, 6:freq=0.5,power=0.031908, 7:freq=0.5,power=0.031536, 8:freq=0.5,power=0.0324499, 9:freq=0.5,power=0.0327361, 10:freq=0.5,power=0.0319481, 11:freq=0.5,power=0.0316397, 12:freq=0.5,power=0.0324746, 13:freq=0.5,power=0.0318102, 14:freq=0.5,power=0.0327289, 15:freq=0.5,power=0.0314684}
Class 0:
Packet latency average = 915.647
	minimum = 6
	maximum = 46352
Network latency average = 302.461
	minimum = 6
	maximum = 25533
Slowest packet = 2620910
Flit latency average = 302.416
	minimum = 6
	maximum = 25533
Slowest flit = 2896368
Fragmentation average = 0
	minimum = 0
	maximum = 0
Injected packet rate average = 0.177171
	minimum = 0.113117 (at node 31)
	maximum = 0.1824 (at node 36)
Accepted packet rate average = 0.176913
	minimum = 0.1747 (at node 63)
	maximum = 0.179983 (at node 45)
Injected flit rate average = 0.177171
	minimum = 0.113117 (at node 31)
	maximum = 0.1824 (at node 36)
Accepted flit rate average= 0.176913
	minimum = 0.1747 (at node 63)
	maximum = 0.179983 (at node 45)
Injected packet length average = 1
Accepted packet length average = 1
Total in-flight flits = 2216 (2216 measured)
Buffer busy stall rate = 5.00669
Buffer conflict stall rate = 5.15473
Buffer full stall rate = 1.04548
Buffer reserved stall rate = 1.68755
Crossbar conflict stall rate = 6.01415
Class 1:
Packet latency average = 4426.57
	minimum = 6
	maximum = 82560
Network latency average = 178.298
	minimum = 6
	maximum = 32840
Slowest packet = 2054056
Flit latency average = 178.267
	minimum = 6
	maximum = 32840
Slowest flit = 3240938
Fragmentation average = 0
	minimum = 0
	maximum = 0
Injected packet rate average = 0.344251
	minimum = 0.0822167 (at node 15)
	maximum = 0.4224 (at node 1)
Accepted packet rate average = 0.343818
	minimum = 0.340208 (at node 40)
	maximum = 0.348425 (at node 24)
Injected flit rate average = 0.344251
	minimum = 0.0822167 (at node 15)
	maximum = 0.4224 (at node 1)
Accepted flit rate average= 0.343818
	minimum = 0.340208 (at node 40)
	maximum = 0.348425 (at node 24)
Injected packet length average = 1
Accepted packet length average = 1
Total in-flight flits = 3861 (3861 measured)
Buffer busy stall rate = 3.54565
Buffer conflict stall rate = 5.09494
Buffer full stall rate = 1.02522
Buffer reserved stall rate = 2.64998
Crossbar conflict stall rate = 12.8029
latency change    = 0.0964809
throughput change = 0.00808454
latency change    = 0.159848
throughput change = 0.0255235
Draining all recorded packets ...
DVFS epoch t=150000 total_power=1.04022 headroom=-0.440222 avg_power=0.729992 domains{0:freq=1,power=1.04022} routers{0:freq=1,power=0.0655954, 1:freq=1,power=0.0658884, 2:freq=1,power=0.0653454, 3:freq=1,power=0.0641241, 4:freq=1,power=0.0655883, 5:freq=1,power=0.0657139, 6:freq=1,power=0.0646011, 7:freq=1,power=0.0635405, 8:freq=1,power=0.0655968, 9:freq=1,power=0.0657024, 10:freq=1,power=0.0649221, 11:freq=1,power=0.0637227, 12:freq=1,power=0.0655027, 13:freq=1,power=0.0648683, 14:freq=1,power=0.0656922, 15:freq=1,power=0.0638178}
Class 0:
Remaining flits: 4715797 4716117 4716258 4716297 4728099 4905105 4905193 4905268 4905304 4963450 [...] (4789 flits)
Measured flits: 4715797 4716117 4716258 4716297 4728099 4905105 4905193 4905268 4905304 4963450 [...] (837 flits)
Class 1:
Remaining flits: 2603232 2666114 3243330 3306172 3311397 5107727 5115021 5116009 5119705 5120957 [...] (5001 flits)
Measured flits: 2603232 2666114 3243330 3306172 3311397 5107727 5115021 5116009 5119705 5120957 [...] (2462 flits)
Class 0:
Remaining flits: 4716258 4716297 4728099 4972676 4976999 4977155 4978002 4978803 4979277 4980064 [...] (5238 flits)
Measured flits: 4716258 4716297 4728099 4972676 4976999 4977155 4978002 4978803 4979277 4980064 [...] (741 flits)
Class 1:
Remaining flits: 2603232 2666114 3243330 3306172 3311397 5124206 5129093 5143900 5147382 5150157 [...] (4366 flits)
Measured flits: 2603232 2666114 3243330 3306172 3311397 5124206 5129093 5143900 5147382 5150157 [...] (2231 flits)
Class 0:
Remaining flits: 4716297 4728099 4972676 4976999 4978002 4979277 4980064 4980469 4980603 4980682 [...] (5755 flits)
Measured flits: 4716297 4728099 4972676 4976999 4978002 4979277 4980064 4980469 4980603 4980682 [...] (693 flits)
Class 1:
Remaining flits: 2603232 2666114 3243330 3306172 3311397 5155349 5157212 5158303 5158831 5159174 [...] (3838 flits)
Measured flits: 2603232 2666114 3243330 3306172 3311397 5155349 5157212 5158303 5158831 5159174 [...] (1718 flits)
Class 0:
Remaining flits: 4716297 4728099 4972676 4976999 4978002 4979277 4980064 4980469 4980603 4980682 [...] (5714 flits)
Measured flits: 4716297 4728099 4972676 4976999 4978002 4979277 4980064 4980469 4980603 4980682 [...] (694 flits)
Class 1:
Remaining flits: 2603232 2666114 3243330 3306172 3311397 5157212 5158303 5159174 5159292 5159317 [...] (4065 flits)
Measured flits: 2603232 2666114 3243330 3306172 3311397 5157212 5158303 5159174 5159292 5159317 [...] (1581 flits)
Class 0:
Remaining flits: 4716297 4728099 4972676 4976999 4978002 4979277 4980064 4980469 4980603 4980682 [...] (5741 flits)
Measured flits: 4716297 4728099 4972676 4976999 4978002 4979277 4980064 4980469 4980603 4980682 [...] (701 flits)
Class 1:
Remaining flits: 2603232 2666114 3243330 3306172 3311397 5159292 5165049 5167011 5168646 5174962 [...] (4205 flits)
Measured flits: 2603232 2666114 3243330 3306172 3311397 5159292 5165049 5167011 5168646 5174962 [...] (1609 flits)
Class 0:
Remaining flits: 4716297 4728099 4972676 4976999 4978002 4979277 4980064 4980469 4980603 4980682 [...] (5880 flits)
Measured flits: 4716297 4728099 4972676 4976999 4978002 4979277 4980064 4980469 4980603 4980682 [...] (676 flits)
Class 1:
Remaining flits: 2603232 2666114 3243330 3306172 3311397 5167011 5168646 5174962 5178027 5190043 [...] (4201 flits)
Measured flits: 2603232 2666114 3243330 3306172 3311397 5167011 5168646 5174962 5178027 5190043 [...] (1297 flits)
Class 0:
Remaining flits: 4716297 4728099 4972676 4976999 4978002 4979277 4980064 4980469 4980603 4980682 [...] (5746 flits)
Measured flits: 4716297 4728099 4972676 4976999 4978002 4979277 4980064 4980469 4980603 4980682 [...] (683 flits)
Class 1:
Remaining flits: 2603232 2666114 3243330 3306172 3311397 5167011 5168646 5174962 5178027 5191243 [...] (3977 flits)
Measured flits: 2603232 2666114 3243330 3306172 3311397 5167011 5168646 5174962 5178027 5191243 [...] (1183 flits)
Class 0:
Remaining flits: 4716297 4728099 4972676 4976999 4978002 4979277 4980064 4980469 4980603 4980682 [...] (5971 flits)
Measured flits: 4716297 4728099 4972676 4976999 4978002 4979277 4980064 4980469 4980603 4980682 [...] (665 flits)
Class 1:
Remaining flits: 2603232 2666114 3243330 3306172 3311397 5167011 5168646 5174962 5178027 5199115 [...] (3872 flits)
Measured flits: 2603232 2666114 3243330 3306172 3311397 5167011 5168646 5174962 5178027 5199115 [...] (1058 flits)
Class 0:
Remaining flits: 4716297 4728099 4972676 4976999 4978002 4979277 4980064 4980469 4980603 4980682 [...] (5836 flits)
Measured flits: 4716297 4728099 4972676 4976999 4978002 4979277 4980064 4980469 4980603 4980682 [...] (692 flits)
Class 1:
Remaining flits: 2603232 2666114 3243330 3306172 3311397 5167011 5168646 5174962 5178027 5199115 [...] (3611 flits)
Measured flits: 2603232 2666114 3243330 3306172 3311397 5167011 5168646 5174962 5178027 5199115 [...] (1090 flits)
Class 0:
Remaining flits: 4716297 4728099 4972676 4976999 4978002 4979277 4980064 4980469 4980603 4980682 [...] (5925 flits)
Measured flits: 4716297 4728099 4972676 4976999 4978002 4979277 4980064 4980469 4980603 4980682 [...] (677 flits)
Class 1:
Remaining flits: 2603232 2666114 3243330 3306172 3311397 5167011 5168646 5174962 5178027 5199115 [...] (3587 flits)
Measured flits: 2603232 2666114 3243330 3306172 3311397 5167011 5168646 5174962 5178027 5199115 [...] (1106 flits)
DVFS epoch t=160000 total_power=0.533292 headroom=0.0667082 avg_power=0.717698 domains{0:freq=0.5,power=0.533292} routers{0:freq=0.5,power=0.0340179, 1:freq=0.5,power=0.0341001, 2:freq=0.5,power=0.0332677, 3:freq=0.5,power=0.0328836, 4:freq=0.5,power=0.0339936, 5:freq=0.5,power=0.0337301, 6:freq=0.5,power=0.0330078, 7:freq=0.5,power=0.0325554, 8:freq=0.5,power=0.0336011, 9:freq=0.5,power=0.0338734, 10:freq=0.5,power=0.0330473, 11:freq=0.5,power=0.0326619, 12:freq=0.5,power=0.0334354, 13:freq=0.5,power=0.0328562, 14:freq=0.5,power=0.033764, 15:freq=0.5,power=0.0324963}
Class 0:
Remaining flits: 4716297 4728099 4972676 4976999 4978002 4979277 4980064 4980469 4980603 4980682 [...] (3968 flits)
Measured flits: 4716297 4728099 4972676 4976999 4978002 4979277 4980064 4980469 4980603 4980682 [...] (676 flits)
Class 1:
Remaining flits: 2603232 2666114 3243330 3306172 3311397 5167011 5168646 5178027 5204907 5205077 [...] (5276 flits)
Measured flits: 2603232 2666114 3243330 3306172 3311397 5167011 5168646 5178027 5204907 5205077 [...] (1965 flits)
Class 0:
Remaining flits: 4716297 4728099 4972676 4976999 4978002 4979277 4980064 4980469 4980603 4980682 [...] (3601 flits)
Measured flits: 4716297 4728099 4972676 4976999 4978002 4979277 4980064 4980469 4980603 4980682 [...] (682 flits)
Class 1:
Remaining flits: 2603232 2666114 3243330 3306172 3311397 5167011 5168646 5178027 5204907 5205077 [...] (5611 flits)
Measured flits: 2603232 2666114 3243330 3306172 3311397 5167011 5168646 5178027 5204907 5205077 [...] (1955 flits)
Class 0:
Remaining flits: 4716297 4728099 4972676 4976999 4978002 4979277 4980064 4980469 4980603 4980682 [...] (3543 flits)
Measured flits: 4716297 4728099 4972676 4976999 4978002 4979277 4980064 4980469 4980603 4980682 [...] (692 flits)
Class 1:
Remaining flits: 2603232 2666114 3243330 3306172 3311397 5167011 5168646 5178027 5204907 5266803 [...] (5338 flits)
Measured flits: 2603232 2666114 3243330 3306172 3311397 5167011 5168646 5178027 5204907 5266803 [...] (1947 flits)
Class 0:
Remaining flits: 4716297 4728099 4972676 4976999 4980064 4980469 4980682 4980843 4981219 4982757 [...] (3374 flits)
Measured flits: 4716297 4728099 4972676 4976999 4980064 4980469 4980682 4980843 4981219 4982757 [...] (605 flits)
Class 1:
Remaining flits: 2603232 2666114 3243330 3306172 3311397 5167011 5168646 5178027 5204907 5266803 [...] (4641 flits)
Measured flits: 2603232 2666114 3243330 3306172 3311397 5167011 5168646 5178027 5204907 5266803 [...] (1766 flits)
Class 0:
Remaining flits: 5101559 5174791 5175178 5175608 5175728 5176212 5251798 5252849 5253041 5258893 [...] (3189 flits)
Measured flits: 5101559 5174791 5175178 5175608 5175728 5176212 5251798 5252849 5253041 5258893 [...] (531 flits)
Class 1:
Remaining flits: 2603232 2666114 3243330 3306172 3311397 5168646 5178027 5204907 5266803 5456533 [...] (3859 flits)
Measured flits: 2603232 2666114 3243330 3306172 3311397 5168646 5178027 5204907 5266803 5456533 [...] (1767 flits)
Average latency for class 1 exceeded 5000 cycles. Aborting simulation.
Simulation unstable, ending ...
Total run time 176.238
1.85573e-13
1.01182e-14
8.2655e-14
1.09233e-13
1.89983e-13
5.84568e-13
3.37458e-13
1.11201e-12
8.52002e-14
1.49959e-12
4.63932e-14
1.01182e-14
2.06637e-14
1.56046e-14
1.89983e-13
8.35097e-14
8.43644e-14
3.57857e-13
2.13e-14
4.50637e-13
2.31966e-14
1.01182e-14
3.3062e-13
4.83744e-13
1.89983e-13
2.5888e-12
1.34983e-12
4.12861e-12
3.40801e-13
4.97629e-12
2.8975e-11
4.62959e-11
1.85573e-13
1.01182e-14
8.2655e-14
1.09233e-13
1.89983e-13
5.84568e-13
3.37458e-13
1.11201e-12
8.52002e-14
1.49959e-12
4.63932e-14
1.01182e-14
2.06637e-14
1.56046e-14
1.89983e-13
8.35097e-14
8.43644e-14
3.57857e-13
2.13e-14
4.50637e-13
2.31966e-14
1.01182e-14
3.3062e-13
4.83744e-13
1.89983e-13
2.5888e-12
1.34983e-12
4.12861e-12
3.40801e-13
4.97629e-12
2.8975e-11
4.63185e-11
1.85573e-13
1.01182e-14
8.2655e-14
1.09233e-13
1.89983e-13
5.84568e-13
3.37458e-13
1.11201e-12
8.52002e-14
1.49959e-12
4.63932e-14
1.01182e-14
2.06637e-14
1.56046e-14
1.89983e-13
8.35097e-14
8.43644e-14
3.57857e-13
2.13e-14
4.50637e-13
2.31966e-14
1.01182e-14
3.3062e-13
4.83744e-13
1.89983e-13
2.5888e-12
1.34983e-12
4.12861e-12
3.40801e-13
4.97629e-12
2.8975e-11
4.63135e-11
1.85573e-13
1.01182e-14
8.2655e-14
1.09233e-13
1.89983e-13
5.84568e-13
3.37458e-13
1.11201e-12
8.52002e-14
1.49959e-12
4.63932e-14
1.01182e-14
2.06637e-14
1.56046e-14
1.89983e-13
8.35097e-14
8.43644e-14
3.57857e-13
2.13e-14
4.50637e-13
2.31966e-14
1.01182e-14
3.3062e-13
4.83744e-13
1.89983e-13
2.5888e-12
1.34983e-12
4.12861e-12
3.40801e-13
4.97629e-12
2.8975e-11
4.62818e-11
1.85573e-13
1.01182e-14
8.2655e-14
1.09233e-13
1.89983e-13
5.84568e-13
3.37458e-13
1.11201e-12
8.52002e-14
1.49959e-12
4.63932e-14
1.01182e-14
2.06637e-14
1.56046e-14
1.89983e-13
8.35097e-14
8.43644e-14
3.57857e-13
2.13e-14
4.50637e-13
2.31966e-14
1.01182e-14
3.3062e-13
4.83744e-13
1.89983e-13
2.5888e-12
1.34983e-12
4.12861e-12
3.40801e-13
4.97629e-12
2.8975e-11
4.62462e-11
1.85573e-13
1.01182e-14
8.2655e-14
1.09233e-13
1.89983e-13
5.84568e-13
3.37458e-13
1.11201e-12
8.52002e-14
1.49959e-12
4.63932e-14
1.01182e-14
2.06637e-14
1.56046e-14
1.89983e-13
8.35097e-14
8.43644e-14
3.57857e-13
2.13e-14
4.50637e-13
2.31966e-14
1.01182e-14
3.3062e-13
4.83744e-13
1.89983e-13
2.5888e-12
1.34983e-12
4.12861e-12
3.40801e-13
4.97629e-12
2.8975e-11
4.62771e-11
1.85573e-13
1.01182e-14
8.2655e-14
1.09233e-13
1.89983e-13
5.84568e-13
3.37458e-13
1.11201e-12
8.52002e-14
1.49959e-12
4.63932e-14
1.01182e-14
2.06637e-14
1.56046e-14
1.89983e-13
8.35097e-14
8.43644e-14
3.57857e-13
2.13e-14
4.50637e-13
2.31966e-14
1.01182e-14
3.3062e-13
4.83744e-13
1.89983e-13
2.5888e-12
1.34983e-12
4.12861e-12
3.40801e-13
4.97629e-12
2.8975e-11
4.6301e-11
1.85573e-13
1.01182e-14
8.2655e-14
1.09233e-13
1.89983e-13
5.84568e-13
3.37458e-13
1.11201e-12
8.52002e-14
1.49959e-12
4.63932e-14
1.01182e-14
2.06637e-14
1.56046e-14
1.89983e-13
8.35097e-14
8.43644e-14
3.57857e-13
2.13e-14
4.50637e-13
2.31966e-14
1.01182e-14
3.3062e-13
4.83744e-13
1.89983e-13
2.5888e-12
1.34983e-12
4.12861e-12
3.40801e-13
4.97629e-12
2.8975e-11
4.62667e-11
1.85573e-13
1.01182e-14
8.2655e-14
1.09233e-13
1.89983e-13
5.84568e-13
3.37458e-13
1.11201e-12
8.52002e-14
1.49959e-12
4.63932e-14
1.01182e-14
2.06637e-14
1.56046e-14
1.89983e-13
8.35097e-14
8.43644e-14
3.57857e-13
2.13e-14
4.50637e-13
2.31966e-14
1.01182e-14
3.3062e-13
4.83744e-13
1.89983e-13
2.5888e-12
1.34983e-12
4.12861e-12
3.40801e-13
4.97629e-12
2.8975e-11
4.62568e-11
1.85573e-13
1.01182e-14
8.2655e-14
1.09233e-13
1.89983e-13
5.84568e-13
3.37458e-13
1.11201e-12
8.52002e-14
1.49959e-12
4.63932e-14
1.01182e-14
2.06637e-14
1.56046e-14
1.89983e-13
8.35097e-14
8.43644e-14
3.57857e-13
2.13e-14
4.50637e-13
2.31966e-14
1.01182e-14
3.3062e-13
4.83744e-13
1.89983e-13
2.5888e-12
1.34983e-12
4.12861e-12
3.40801e-13
4.97629e-12
2.8975e-11
4.62806e-11
1.85573e-13
1.01182e-14
8.2655e-14
1.09233e-13
1.89983e-13
5.84568e-13
3.37458e-13
1.11201e-12
8.52002e-14
1.49959e-12
4.63932e-14
1.01182e-14
2.06637e-14
1.56046e-14
1.89983e-13
8.35097e-14
8.43644e-14
3.57857e-13
2.13e-14
4.50637e-13
2.31966e-14
1.01182e-14
3.3062e-13
4.83744e-13
1.89983e-13
2.5888e-12
1.34983e-12
4.12861e-12
3.40801e-13
4.97629e-12
2.8975e-11
4.62962e-11
1.85573e-13
1.01182e-14
8.2655e-14
1.09233e-13
1.89983e-13
5.84568e-13
3.37458e-13
1.11201e-12
8.52002e-14
1.49959e-12
4.63932e-14
1.01182e-14
2.06637e-14
1.56046e-14
1.89983e-13
8.35097e-14
8.43644e-14
3.57857e-13
2.13e-14
4.50637e-13
2.31966e-14
1.01182e-14
3.3062e-13
4.83744e-13
1.89983e-13
2.5888e-12
1.34983e-12
4.12861e-12
3.40801e-13
4.97629e-12
2.8975e-11
4.62965e-11
1.85573e-13
1.01182e-14
8.2655e-14
1.09233e-13
1.89983e-13
5.84568e-13
3.37458e-13
1.11201e-12
8.52002e-14
1.49959e-12
4.63932e-14
1.01182e-14
2.06637e-14
1.56046e-14
1.89983e-13
8.35097e-14
8.43644e-14
3.57857e-13
2.13e-14
4.50637e-13
2.31966e-14
1.01182e-14
3.3062e-13
4.83744e-13
1.89983e-13
2.5888e-12
1.34983e-12
4.12861e-12
3.40801e-13
4.97629e-12
2.8975e-11
4.63183e-11
1.85573e-13
1.01182e-14
8.2655e-14
1.09233e-13
1.89983e-13
5.84568e-13
3.37458e-13
1.11201e-12
8.52002e-14
1.49959e-12
4.63932e-14
1.01182e-14
2.06637e-14
1.56046e-14
1.89983e-13
8.35097e-14
8.43644e-14
3.57857e-13
2.13e-14
4.50637e-13
2.31966e-14
1.01182e-14
3.3062e-13
4.83744e-13
1.89983e-13
2.5888e-12
1.34983e-12
4.12861e-12
3.40801e-13
4.97629e-12
2.8975e-11
4.62977e-11
1.85573e-13
1.01182e-14
8.2655e-14
1.09233e-13
1.89983e-13
5.84568e-13
3.37458e-13
1.11201e-12
8.52002e-14
1.49959e-12
4.63932e-14
1.01182e-14
2.06637e-14
1.56046e-14
1.89983e-13
8.35097e-14
8.43644e-14
3.57857e-13
2.13e-14
4.50637e-13
2.31966e-14
1.01182e-14
3.3062e-13
4.83744e-13
1.89983e-13
2.5888e-12
1.34983e-12
4.12861e-12
3.40801e-13
4.97629e-12
2.8975e-11
4.63066e-11
1.85573e-13
1.01182e-14
8.2655e-14
1.09233e-13
1.89983e-13
5.84568e-13
3.37458e-13
1.11201e-12
8.52002e-14
1.49959e-12
4.63932e-14
1.01182e-14
2.06637e-14
1.56046e-14
1.89983e-13
8.35097e-14
8.43644e-14
3.57857e-13
2.13e-14
4.50637e-13
2.31966e-14
1.01182e-14
3.3062e-13
4.83744e-13
1.89983e-13
2.5888e-12
1.34983e-12
4.12861e-12
3.40801e-13
4.97629e-12
2.8975e-11
4.63072e-11
1.85573e-13
1.01182e-14
8.2655e-14
1.09233e-13
1.89983e-13
5.84568e-13
3.37458e-13
1.11201e-12
8.52002e-14
1.49959e-12
4.63932e-14
1.01182e-14
2.06637e-14
1.56046e-14
1.89983e-13
8.35097e-14
8.43644e-14
3.57857e-13
2.13e-14
4.50637e-13
2.31966e-14
1.01182e-14
3.3062e-13
4.83744e-13
1.89983e-13
2.5888e-12
1.34983e-12
4.12861e-12
3.40801e-13
4.97629e-12
3.01535e-11
5.02717e-11
1.85573e-13
1.01182e-14
8.2655e-14
1.09233e-13
1.89983e-13
5.84568e-13
3.37458e-13
1.11201e-12
8.52002e-14
1.49959e-12
4.63932e-14
1.01182e-14
2.06637e-14
1.56046e-14
1.89983e-13
8.35097e-14
8.43644e-14
3.57857e-13
2.13e-14
4.50637e-13
2.31966e-14
1.01182e-14
3.3062e-13
4.83744e-13
1.89983e-13
2.5888e-12
1.34983e-12
4.12861e-12
3.40801e-13
4.97629e-12
3.01535e-11
5.03604e-11
1.85573e-13
1.01182e-14
8.2655e-14
1.09233e-13
1.89983e-13
5.84568e-13
3.37458e-13
1.11201e-12
8.52002e-14
1.49959e-12
4.63932e-14
1.01182e-14
2.06637e-14
1.56046e-14
1.89983e-13
8.35097e-14
8.43644e-14
3.57857e-13
2.13e-14
4.50637e-13
2.31966e-14
1.01182e-14
3.3062e-13
4.83744e-13
1.89983e-13
2.5888e-12
1.34983e-12
4.12861e-12
3.40801e-13
4.97629e-12
3.01535e-11
5.03137e-11
1.85573e-13
1.01182e-14
8.2655e-14
1.09233e-13
1.89983e-13
5.84568e-13
3.37458e-13
1.11201e-12
8.52002e-14
1.49959e-12
4.63932e-14
1.01182e-14
2.06637e-14
1.56046e-14
1.89983e-13
8.35097e-14
8.43644e-14
3.57857e-13
2.13e-14
4.50637e-13
2.31966e-14
1.01182e-14
3.3062e-13
4.83744e-13
1.89983e-13
2.5888e-12
1.34983e-12
4.12861e-12
3.40801e-13
4.97629e-12
3.01535e-11
5.03257e-11
1.85573e-13
1.01182e-14
8.2655e-14
1.09233e-13
1.89983e-13
5.84568e-13
3.37458e-13
1.11201e-12
8.52002e-14
1.49959e-12
4.63932e-14
1.01182e-14
2.06637e-14
1.56046e-14
1.89983e-13
8.35097e-14
8.43644e-14
3.57857e-13
2.13e-14
4.50637e-13
2.31966e-14
1.01182e-14
3.3062e-13
4.83744e-13
1.89983e-13
2.5888e-12
1.34983e-12
4.12861e-12
3.40801e-13
4.97629e-12
3.01535e-11
5.03174e-11
1.85573e-13
1.01182e-14
8.2655e-14
1.09233e-13
1.89983e-13
5.84568e-13
3.37458e-13
1.11201e-12
8.52002e-14
1.49959e-12
4.63932e-14
1.01182e-14
2.06637e-14
1.56046e-14
1.89983e-13
8.35097e-14
8.43644e-14
3.57857e-13
2.13e-14
4.50637e-13
2.31966e-14
1.01182e-14
3.3062e-13
4.83744e-13
1.89983e-13
2.5888e-12
1.34983e-12
4.12861e-12
3.40801e-13
4.97629e-12
3.01535e-11
5.03086e-11
1.85573e-13
1.01182e-14
8.2655e-14
1.09233e-13
1.89983e-13
5.84568e-13
3.37458e-13
1.11201e-12
8.52002e-14
1.49959e-12
4.63932e-14
1.01182e-14
2.06637e-14
1.56046e-14
1.89983e-13
8.35097e-14
8.43644e-14
3.57857e-13
2.13e-14
4.50637e-13
2.31966e-14
1.01182e-14
3.3062e-13
4.83744e-13
1.89983e-13
2.5888e-12
1.34983e-12
4.12861e-12
3.40801e-13
4.97629e-12
3.01535e-11
5.03069e-11
1.85573e-13
1.01182e-14
8.2655e-14
1.09233e-13
1.89983e-13
5.84568e-13
3.37458e-13
1.11201e-12
8.52002e-14
1.49959e-12
4.63932e-14
1.01182e-14
2.06637e-14
1.56046e-14
1.89983e-13
8.35097e-14
8.43644e-14
3.57857e-13
2.13e-14
4.50637e-13
2.31966e-14
1.01182e-14
3.3062e-13
4.83744e-13
1.89983e-13
2.5888e-12
1.34983e-12
4.12861e-12
3.40801e-13
4.97629e-12
3.01535e-11
5.03739e-11
1.85573e-13
1.01182e-14
8.2655e-14
1.09233e-13
1.89983e-13
5.84568e-13
3.37458e-13
1.11201e-12
8.52002e-14
1.49959e-12
4.63932e-14
1.01182e-14
2.06637e-14
1.56046e-14
1.89983e-13
8.35097e-14
8.43644e-14
3.57857e-13
2.13e-14
4.50637e-13
2.31966e-14
1.01182e-14
3.3062e-13
4.83744e-13
1.89983e-13
2.5888e-12
1.34983e-12
4.12861e-12
3.40801e-13
4.97629e-12
3.01535e-11
5.02974e-11
1.85573e-13
1.01182e-14
8.2655e-14
1.09233e-13
1.89983e-13
5.84568e-13
3.37458e-13
1.11201e-12
8.52002e-14
1.49959e-12
4.63932e-14
1.01182e-14
2.06637e-14
1.56046e-14
1.89983e-13
8.35097e-14
8.43644e-14
3.57857e-13
2.13e-14
4.50637e-13
2.31966e-14
1.01182e-14
3.3062e-13
4.83744e-13
1.89983e-13
2.5888e-12
1.34983e-12
4.12861e-12
3.40801e-13
4.97629e-12
3.01535e-11
5.02695e-11
1.85573e-13
1.01182e-14
8.2655e-14
1.09233e-13
1.89983e-13
5.84568e-13
3.37458e-13
1.11201e-12
8.52002e-14
1.49959e-12
4.63932e-14
1.01182e-14
2.06637e-14
1.56046e-14
1.89983e-13
8.35097e-14
8.43644e-14
3.57857e-13
2.13e-14
4.50637e-13
2.31966e-14
1.01182e-14
3.3062e-13
4.83744e-13
1.89983e-13
2.5888e-12
1.34983e-12
4.12861e-12
3.40801e-13
4.97629e-12
3.01535e-11
5.03943e-11
1.85573e-13
1.01182e-14
8.2655e-14
1.09233e-13
1.89983e-13
5.84568e-13
3.37458e-13
1.11201e-12
8.52002e-14
1.49959e-12
4.63932e-14
1.01182e-14
2.06637e-14
1.56046e-14
1.89983e-13
8.35097e-14
8.43644e-14
3.57857e-13
2.13e-14
4.50637e-13
2.31966e-14
1.01182e-14
3.3062e-13
4.83744e-13
1.89983e-13
2.5888e-12
1.34983e-12
4.12861e-12
3.40801e-13
4.97629e-12
3.01535e-11
5.03536e-11
1.85573e-13
1.01182e-14
8.2655e-14
1.09233e-13
1.89983e-13
5.84568e-13
3.37458e-13
1.11201e-12
8.52002e-14
1.49959e-12
4.63932e-14
1.01182e-14
2.06637e-14
1.56046e-14
1.89983e-13
8.35097e-14
8.43644e-14
3.57857e-13
2.13e-14
4.50637e-13
2.31966e-14
1.01182e-14
3.3062e-13
4.83744e-13
1.89983e-13
2.5888e-12
1.34983e-12
4.12861e-12
3.40801e-13
4.97629e-12
3.01535e-11
5.03349e-11
1.85573e-13
1.01182e-14
8.2655e-14
1.09233e-13
1.89983e-13
5.84568e-13
3.37458e-13
1.11201e-12
8.52002e-14
1.49959e-12
4.63932e-14
1.01182e-14
2.06637e-14
1.56046e-14
1.89983e-13
8.35097e-14
8.43644e-14
3.57857e-13
2.13e-14
4.50637e-13
2.31966e-14
1.01182e-14
3.3062e-13
4.83744e-13
1.89983e-13
2.5888e-12
1.34983e-12
4.12861e-12
3.40801e-13
4.97629e-12
3.01535e-11
5.03582e-11
1.85573e-13
1.01182e-14
8.2655e-14
1.09233e-13
1.89983e-13
5.84568e-13
3.37458e-13
1.11201e-12
8.52002e-14
1.49959e-12
4.63932e-14
1.01182e-14
2.06637e-14
1.56046e-14
1.89983e-13
8.35097e-14
8.43644e-14
3.57857e-13
2.13e-14
4.50637e-13
2.31966e-14
1.01182e-14
3.3062e-13
4.83744e-13
1.89983e-13
2.5888e-12
1.34983e-12
4.12861e-12
3.40801e-13
4.97629e-12
3.01535e-11
5.03001e-11
1.85573e-13
1.01182e-14
8.2655e-14
1.09233e-13
1.89983e-13
5.84568e-13
3.37458e-13
1.11201e-12
8.52002e-14
1.49959e-12
4.63932e-14
1.01182e-14
2.06637e-14
1.56046e-14
1.89983e-13
8.35097e-14
8.43644e-14
3.57857e-13
2.13e-14
4.50637e-13
2.31966e-14
1.01182e-14
3.3062e-13
4.83744e-13
1.89983e-13
2.5888e-12
1.34983e-12
4.12861e-12
3.40801e-13
4.97629e-12
3.01535e-11
5.03053e-11
1.85573e-13
1.01182e-14
8.2655e-14
1.09233e-13
1.89983e-13
5.84568e-13
3.37458e-13
1.11201e-12
8.52002e-14
1.49959e-12
4.63932e-14
1.01182e-14
2.06637e-14
1.56046e-14
1.89983e-13
8.35097e-14
8.43644e-14
3.57857e-13
2.13e-14
4.50637e-13
2.31966e-14
1.01182e-14
3.3062e-13
4.83744e-13
1.89983e-13
2.5888e-12
1.34983e-12
4.12861e-12
3.40801e-13
4.97629e-12
3.1332e-11
4.8778e-11
1.85573e-13
1.01182e-14
8.2655e-14
1.09233e-13
1.89983e-13
5.84568e-13
3.37458e-13
1.11201e-12
8.52002e-14
1.49959e-12
4.63932e-14
1.01182e-14
2.06637e-14
1.56046e-14
1.89983e-13
8.35097e-14
8.43644e-14
3.57857e-13
2.13e-14
4.50637e-13
2.31966e-14
1.01182e-14
3.3062e-13
4.83744e-13
1.89983e-13
2.5888e-12
1.34983e-12
4.12861e-12
3.40801e-13
4.97629e-12
3.1332e-11
4.87312e-11
1.85573e-13
1.01182e-14
8.2655e-14
1.09233e-13
1.89983e-13
5.84568e-13
3.37458e-13
1.11201e-12
8.52002e-14
1.49959e-12
4.63932e-14
1.01182e-14
2.06637e-14
1.56046e-14
1.89983e-13
8.35097e-14
8.43644e-14
3.57857e-13
2.13e-14
4.50637e-13
2.31966e-14
1.01182e-14
3.3062e-13
4.83744e-13
1.89983e-13
2.5888e-12
1.34983e-12
4.12861e-12
3.40801e-13
4.97629e-12
3.1332e-11
4.87147e-11
1.85573e-13
1.01182e-14
8.2655e-14
1.09233e-13
1.89983e-13
5.84568e-13
3.37458e-13
1.11201e-12
8.52002e-14
1.49959e-12
4.63932e-14
1.01182e-14
2.06637e-14
1.56046e-14
1.89983e-13
8.35097e-14
8.43644e-14
3.57857e-13
2.13e-14
4.50637e-13
2.31966e-14
1.01182e-14
3.3062e-13
4.83744e-13
1.89983e-13
2.5888e-12
1.34983e-12
4.12861e-12
3.40801e-13
4.97629e-12
3.1332e-11
4.87292e-11
1.85573e-13
1.01182e-14
8.2655e-14
1.09233e-13
1.89983e-13
5.84568e-13
3.37458e-13
1.11201e-12
8.52002e-14
1.49959e-12
4.63932e-14
1.01182e-14
2.06637e-14
1.56046e-14
1.89983e-13
8.35097e-14
8.43644e-14
3.57857e-13
2.13e-14
4.50637e-13
2.31966e-14
1.01182e-14
3.3062e-13
4.83744e-13
1.89983e-13
2.5888e-12
1.34983e-12
4.12861e-12
3.40801e-13
4.97629e-12
3.1332e-11
4.87679e-11
1.85573e-13
1.01182e-14
8.2655e-14
1.09233e-13
1.89983e-13
5.84568e-13
3.37458e-13
1.11201e-12
8.52002e-14
1.49959e-12
4.63932e-14
1.01182e-14
2.06637e-14
1.56046e-14
1.89983e-13
8.35097e-14
8.43644e-14
3.57857e-13
2.13e-14
4.50637e-13
2.31966e-14
1.01182e-14
3.3062e-13
4.83744e-13
1.89983e-13
2.5888e-12
1.34983e-12
4.12861e-12
3.40801e-13
4.97629e-12
3.1332e-11
4.87273e-11
1.85573e-13
1.01182e-14
8.2655e-14
1.09233e-13
1.89983e-13
5.84568e-13
3.37458e-13
1.11201e-12
8.52002e-14
1.49959e-12
4.63932e-14
1.01182e-14
2.06637e-14
1.56046e-14
1.89983e-13
8.35097e-14
8.43644e-14
3.57857e-13
2.13e-14
4.50637e-13
2.31966e-14
1.01182e-14
3.3062e-13
4.83744e-13
1.89983e-13
2.5888e-12
1.34983e-12
4.12861e-12
3.40801e-13
4.97629e-12
3.1332e-11
4.87438e-11
1.85573e-13
1.01182e-14
8.2655e-14
1.09233e-13
1.89983e-13
5.84568e-13
3.37458e-13
1.11201e-12
8.52002e-14
1.49959e-12
4.63932e-14
1.01182e-14
2.06637e-14
1.56046e-14
1.89983e-13
8.35097e-14
8.43644e-14
3.57857e-13
2.13e-14
4.50637e-13
2.31966e-14
1.01182e-14
3.3062e-13
4.83744e-13
1.89983e-13
2.5888e-12
1.34983e-12
4.12861e-12
3.40801e-13
4.97629e-12
3.1332e-11
4.87593e-11
1.85573e-13
1.01182e-14
8.2655e-14
1.09233e-13
1.89983e-13
5.84568e-13
3.37458e-13
1.11201e-12
8.52002e-14
1.49959e-12
4.63932e-14
1.01182e-14
2.06637e-14
1.56046e-14
1.89983e-13
8.35097e-14
8.43644e-14
3.57857e-13
2.13e-14
4.50637e-13
2.31966e-14
1.01182e-14
3.3062e-13
4.83744e-13
1.89983e-13
2.5888e-12
1.34983e-12
4.12861e-12
3.40801e-13
4.97629e-12
3.1332e-11
4.87463e-11
1.85573e-13
1.01182e-14
8.2655e-14
1.09233e-13
1.89983e-13
5.84568e-13
3.37458e-13
1.11201e-12
8.52002e-14
1.49959e-12
4.63932e-14
1.01182e-14
2.06637e-14
1.56046e-14
1.89983e-13
8.35097e-14
8.43644e-14
3.57857e-13
2.13e-14
4.50637e-13
2.31966e-14
1.01182e-14
3.3062e-13
4.83744e-13
1.89983e-13
2.5888e-12
1.34983e-12
4.12861e-12
3.40801e-13
4.97629e-12
3.1332e-11
4.87354e-11
1.85573e-13
1.01182e-14
8.2655e-14
1.09233e-13
1.89983e-13
5.84568e-13
3.37458e-13
1.11201e-12
8.52002e-14
1.49959e-12
4.63932e-14
1.01182e-14
2.06637e-14
1.56046e-14
1.89983e-13
8.35097e-14
8.43644e-14
3.57857e-13
2.13e-14
4.50637e-13
2.31966e-14
1.01182e-14
3.3062e-13
4.83744e-13
1.89983e-13
2.5888e-12
1.34983e-12
4.12861e-12
3.40801e-13
4.97629e-12
3.1332e-11
4.87575e-11
1.85573e-13
1.01182e-14
8.2655e-14
1.09233e-13
1.89983e-13
5.84568e-13
3.37458e-13
1.11201e-12
8.52002e-14
1.49959e-12
4.63932e-14
1.01182e-14
2.06637e-14
1.56046e-14
1.89983e-13
8.35097e-14
8.43644e-14
3.57857e-13
2.13e-14
4.50637e-13
2.31966e-14
1.01182e-14
3.3062e-13
4.83744e-13
1.89983e-13
2.5888e-12
1.34983e-12
4.12861e-12
3.40801e-13
4.97629e-12
3.1332e-11
4.87615e-11
1.85573e-13
1.01182e-14
8.2655e-14
1.09233e-13
1.89983e-13
5.84568e-13
3.37458e-13
1.11201e-12
8.52002e-14
1.49959e-12
4.63932e-14
1.01182e-14
2.06637e-14
1.56046e-14
1.89983e-13
8.35097e-14
8.43644e-14
3.57857e-13
2.13e-14
4.50637e-13
2.31966e-14
1.01182e-14
3.3062e-13
4.83744e-13
1.89983e-13
2.5888e-12
1.34983e-12
4.12861e-12
3.40801e-13
4.97629e-12
3.1332e-11
4.87589e-11
1.85573e-13
1.01182e-14
8.2655e-14
1.09233e-13
1.89983e-13
5.84568e-13
3.37458e-13
1.11201e-12
8.52002e-14
1.49959e-12
4.63932e-14
1.01182e-14
2.06637e-14
1.56046e-14
1.89983e-13
8.35097e-14
8.43644e-14
3.57857e-13
2.13e-14
4.50637e-13
2.31966e-14
1.01182e-14
3.3062e-13
4.83744e-13
1.89983e-13
2.5888e-12
1.34983e-12
4.12861e-12
3.40801e-13
4.97629e-12
3.1332e-11
4.87484e-11
1.85573e-13
1.01182e-14
8.2655e-14
1.09233e-13
1.89983e-13
5.84568e-13
3.37458e-13
1.11201e-12
8.52002e-14
1.49959e-12
4.63932e-14
1.01182e-14
2.06637e-14
1.56046e-14
1.89983e-13
8.35097e-14
8.43644e-14
3.57857e-13
2.13e-14
4.50637e-13
2.31966e-14
1.01182e-14
3.3062e-13
4.83744e-13
1.89983e-13
2.5888e-12
1.34983e-12
4.12861e-12
3.40801e-13
4.97629e-12
3.1332e-11
4.87155e-11
1.85573e-13
1.01182e-14
8.2655e-14
1.09233e-13
1.89983e-13
5.84568e-13
3.37458e-13
1.11201e-12
8.52002e-14
1.49959e-12
4.63932e-14
1.01182e-14
2.06637e-14
1.56046e-14
1.89983e-13
8.35097e-14
8.43644e-14
3.57857e-13
2.13e-14
4.50637e-13
2.31966e-14
1.01182e-14
3.3062e-13
4.83744e-13
1.89983e-13
2.5888e-12
1.34983e-12
4.12861e-12
3.40801e-13
4.97629e-12
3.1332e-11
4.87261e-11
1.85573e-13
1.01182e-14
8.2655e-14
1.09233e-13
1.89983e-13
5.84568e-13
3.37458e-13
1.11201e-12
8.52002e-14
1.49959e-12
4.63932e-14
1.01182e-14
2.06637e-14
1.56046e-14
1.89983e-13
8.35097e-14
8.43644e-14
3.57857e-13
2.13e-14
4.50637e-13
2.31966e-14
1.01182e-14
3.3062e-13
4.83744e-13
1.89983e-13
2.5888e-12
1.34983e-12
4.12861e-12
3.40801e-13
4.97629e-12
3.25105e-11
5.34958e-11
1.85573e-13
1.01182e-14
8.2655e-14
1.09233e-13
1.89983e-13
5.84568e-13
3.37458e-13
1.11201e-12
8.52002e-14
1.49959e-12
4.63932e-14
1.01182e-14
2.06637e-14
1.56046e-14
1.89983e-13
8.35097e-14
8.43644e-14
3.57857e-13
2.13e-14
4.50637e-13
2.31966e-14
1.01182e-14
3.3062e-13
4.83744e-13
1.89983e-13
2.5888e-12
1.34983e-12
4.12861e-12
3.40801e-13
4.97629e-12
3.25105e-11
5.34292e-11
1.85573e-13
1.01182e-14
8.2655e-14
1.09233e-13
1.89983e-13
5.84568e-13
3.37458e-13
1.11201e-12
8.52002e-14
1.49959e-12
4.63932e-14
1.01182e-14
2.06637e-14
1.56046e-14
1.89983e-13
8.35097e-14
8.43644e-14
3.57857e-13
2.13e-14
4.50637e-13
2.31966e-14
1.01182e-14
3.3062e-13
4.83744e-13
1.89983e-13
2.5888e-12
1.34983e-12
4.12861e-12
3.40801e-13
4.97629e-12
3.25105e-11
5.34462e-11
1.85573e-13
1.01182e-14
8.2655e-14
1.09233e-13
1.89983e-13
5.84568e-13
3.37458e-13
1.11201e-12
8.52002e-14
1.49959e-12
4.63932e-14
1.01182e-14
2.06637e-14
1.56046e-14
1.89983e-13
8.35097e-14
8.43644e-14
3.57857e-13
2.13e-14
4.50637e-13
2.31966e-14
1.01182e-14
3.3062e-13
4.83744e-13
1.89983e-13
2.5888e-12
1.34983e-12
4.12861e-12
3.40801e-13
4.97629e-12
3.25105e-11
5.34106e-11
1.85573e-13
1.01182e-14
8.2655e-14
1.09233e-13
1.89983e-13
5.84568e-13
3.37458e-13
1.11201e-12
8.52002e-14
1.49959e-12
4.63932e-14
1.01182e-14
2.06637e-14
1.56046e-14
1.89983e-13
8.35097e-14
8.43644e-14
3.57857e-13
2.13e-14
4.50637e-13
2.31966e-14
1.01182e-14
3.3062e-13
4.83744e-13
1.89983e-13
2.5888e-12
1.34983e-12
4.12861e-12
3.40801e-13
4.97629e-12
3.25105e-11
5.34742e-11
1.85573e-13
1.01182e-14
8.2655e-14
1.09233e-13
1.89983e-13
5.84568e-13
3.37458e-13
1.11201e-12
8.52002e-14
1.49959e-12
4.63932e-14
1.01182e-14
2.06637e-14
1.56046e-14
1.89983e-13
8.35097e-14
8.43644e-14
3.57857e-13
2.13e-14
4.50637e-13
2.31966e-14
1.01182e-14
3.3062e-13
4.83744e-13
1.89983e-13
2.5888e-12
1.34983e-12
4.12861e-12
3.40801e-13
4.97629e-12
3.25105e-11
5.34157e-11
1.85573e-13
1.01182e-14
8.2655e-14
1.09233e-13
1.89983e-13
5.84568e-13
3.37458e-13
1.11201e-12
8.52002e-14
1.49959e-12
4.63932e-14
1.01182e-14
2.06637e-14
1.56046e-14
1.89983e-13
8.35097e-14
8.43644e-14
3.57857e-13
2.13e-14
4.50637e-13
2.31966e-14
1.01182e-14
3.3062e-13
4.83744e-13
1.89983e-13
2.5888e-12
1.34983e-12
4.12861e-12
3.40801e-13
4.97629e-12
3.25105e-11
5.34305e-11
1.85573e-13
1.01182e-14
8.2655e-14
1.09233e-13
1.89983e-13
5.84568e-13
3.37458e-13
1.11201e-12
8.52002e-14
1.49959e-12
4.63932e-14
1.01182e-14
2.06637e-14
1.56046e-14
1.89983e-13
8.35097e-14
8.43644e-14
3.57857e-13
2.13e-14
4.50637e-13
2.31966e-14
1.01182e-14
3.3062e-13
4.83744e-13
1.89983e-13
2.5888e-12
1.34983e-12
4.12861e-12
3.40801e-13
4.97629e-12
3.25105e-11
5.35367e-11
1.85573e-13
1.01182e-14
8.2655e-14
1.09233e-13
1.89983e-13
5.84568e-13
3.37458e-13
1.11201e-12
8.52002e-14
1.49959e-12
4.63932e-14
1.01182e-14
2.06637e-14
1.56046e-14
1.89983e-13
8.35097e-14
8.43644e-14
3.57857e-13
2.13e-14
4.50637e-13
2.31966e-14
1.01182e-14
3.3062e-13
4.83744e-13
1.89983e-13
2.5888e-12
1.34983e-12
4.12861e-12
3.40801e-13
4.97629e-12
3.25105e-11
5.33291e-11
1.85573e-13
1.01182e-14
8.2655e-14
1.09233e-13
1.89983e-13
5.84568e-13
3.37458e-13
1.11201e-12
8.52002e-14
1.49959e-12
4.63932e-14
1.01182e-14
2.06637e-14
1.56046e-14
1.89983e-13
8.35097e-14
8.43644e-14
3.57857e-13
2.13e-14
4.50637e-13
2.31966e-14
1.01182e-14
3.3062e-13
4.83744e-13
1.89983e-13
2.5888e-12
1.34983e-12
4.12861e-12
3.40801e-13
4.97629e-12
3.25105e-11
5.3468e-11
1.85573e-13
1.01182e-14
8.2655e-14
1.09233e-13
1.89983e-13
5.84568e-13
3.37458e-13
1.11201e-12
8.52002e-14
1.49959e-12
4.63932e-14
1.01182e-14
2.06637e-14
1.56046e-14
1.89983e-13
8.35097e-14
8.43644e-14
3.57857e-13
2.13e-14
4.50637e-13
2.31966e-14
1.01182e-14
3.3062e-13
4.83744e-13
1.89983e-13
2.5888e-12
1.34983e-12
4.12861e-12
3.40801e-13
4.97629e-12
3.25105e-11
5.34766e-11
1.85573e-13
1.01182e-14
8.2655e-14
1.09233e-13
1.89983e-13
5.84568e-13
3.37458e-13
1.11201e-12
8.52002e-14
1.49959e-12
4.63932e-14
1.01182e-14
2.06637e-14
1.56046e-14
1.89983e-13
8.35097e-14
8.43644e-14
3.57857e-13
2.13e-14
4.50637e-13
2.31966e-14
1.01182e-14
3.3062e-13
4.83744e-13
1.89983e-13
2.5888e-12
1.34983e-12
4.12861e-12
3.40801e-13
4.97629e-12
3.25105e-11
5.34053e-11
1.85573e-13
1.01182e-14
8.2655e-14
1.09233e-13
1.89983e-13
5.84568e-13
3.37458e-13
1.11201e-12
8.52002e-14
1.49959e-12
4.63932e-14
1.01182e-14
2.06637e-14
1.56046e-14
1.89983e-13
8.35097e-14
8.43644e-14
3.57857e-13
2.13e-14
4.50637e-13
2.31966e-14
1.01182e-14
3.3062e-13
4.83744e-13
1.89983e-13
2.5888e-12
1.34983e-12
4.12861e-12
3.40801e-13
4.97629e-12
3.25105e-11
5.34247e-11
1.85573e-13
1.01182e-14
8.2655e-14
1.09233e-13
1.89983e-13
5.84568e-13
3.37458e-13
1.11201e-12
8.52002e-14
1.49959e-12
4.63932e-14
1.01182e-14
2.06637e-14
1.56046e-14
1.89983e-13
8.35097e-14
8.43644e-14
3.57857e-13
2.13e-14
4.50637e-13
2.31966e-14
1.01182e-14
3.3062e-13
4.83744e-13
1.89983e-13
2.5888e-12
1.34983e-12
4.12861e-12
3.40801e-13
4.97629e-12
3.25105e-11
5.34446e-11
1.85573e-13
1.01182e-14
8.2655e-14
1.09233e-13
1.89983e-13
5.84568e-13
3.37458e-13
1.11201e-12
8.52002e-14
1.49959e-12
4.63932e-14
1.01182e-14
2.06637e-14
1.56046e-14
1.89983e-13
8.35097e-14
8.43644e-14
3.57857e-13
2.13e-14
4.50637e-13
2.31966e-14
1.01182e-14
3.3062e-13
4.83744e-13
1.89983e-13
2.5888e-12
1.34983e-12
4.12861e-12
3.40801e-13
4.97629e-12
3.25105e-11
5.34172e-11
1.85573e-13
1.01182e-14
8.2655e-14
1.09233e-13
1.89983e-13
5.84568e-13
3.37458e-13
1.11201e-12
8.52002e-14
1.49959e-12
4.63932e-14
1.01182e-14
2.06637e-14
1.56046e-14
1.89983e-13
8.35097e-14
8.43644e-14
3.57857e-13
2.13e-14
4.50637e-13
2.31966e-14
1.01182e-14
3.3062e-13
4.83744e-13
1.89983e-13
2.5888e-12
1.34983e-12
4.12861e-12
3.40801e-13
4.97629e-12
3.25105e-11
5.33927e-11
1.85573e-13
1.01182e-14
8.2655e-14
1.09233e-13
1.89983e-13
5.84568e-13
3.37458e-13
1.11201e-12
8.52002e-14
1.49959e-12
4.63932e-14
1.01182e-14
2.06637e-14
1.56046e-14
1.89983e-13
8.35097e-14
8.43644e-14
3.57857e-13
2.13e-14
4.50637e-13
2.31966e-14
1.01182e-14
3.3062e-13
4.83744e-13
1.89983e-13
2.5888e-12
1.34983e-12
4.12861e-12
3.40801e-13
4.97629e-12
3.3689e-11
5.10317e-11
1.85573e-13
1.01182e-14
8.2655e-14
1.09233e-13
1.89983e-13
5.84568e-13
3.37458e-13
1.11201e-12
8.52002e-14
1.49959e-12
4.63932e-14
1.01182e-14
2.06637e-14
1.56046e-14
1.89983e-13
8.35097e-14
8.43644e-14
3.57857e-13
2.13e-14
4.50637e-13
2.31966e-14
1.01182e-14
3.3062e-13
4.83744e-13
1.89983e-13
2.5888e-12
1.34983e-12
4.12861e-12
3.40801e-13
4.97629e-12
3.3689e-11
5.10528e-11
1.85573e-13
1.01182e-14
8.2655e-14
1.09233e-13
1.89983e-13
5.84568e-13
3.37458e-13
1.11201e-12
8.52002e-14
1.49959e-12
4.63932e-14
1.01182e-14
2.06637e-14
1.56046e-14
1.89983e-13
8.35097e-14
8.43644e-14
3.57857e-13
2.13e-14
4.50637e-13
2.31966e-14
1.01182e-14
3.3062e-13
4.83744e-13
1.89983e-13
2.5888e-12
1.34983e-12
4.12861e-12
3.40801e-13
4.97629e-12
3.3689e-11
5.10824e-11
1.85573e-13
1.01182e-14
8.2655e-14
1.09233e-13
1.89983e-13
5.84568e-13
3.37458e-13
1.11201e-12
8.52002e-14
1.49959e-12
4.63932e-14
1.01182e-14
2.06637e-14
1.56046e-14
1.89983e-13
8.35097e-14
8.43644e-14
3.57857e-13
2.13e-14
4.50637e-13
2.31966e-14
1.01182e-14
3.3062e-13
4.83744e-13
1.89983e-13
2.5888e-12
1.34983e-12
4.12861e-12
3.40801e-13
4.97629e-12
3.3689e-11
5.10364e-11
1.85573e-13
1.01182e-14
8.2655e-14
1.09233e-13
1.89983e-13
5.84568e-13
3.37458e-13
1.11201e-12
8.52002e-14
1.49959e-12
4.63932e-14
1.01182e-14
2.06637e-14
1.56046e-14
1.89983e-13
8.35097e-14
8.43644e-14
3.57857e-13
2.13e-14
4.50637e-13
2.31966e-14
1.01182e-14
3.3062e-13
4.83744e-13
1.89983e-13
2.5888e-12
1.34983e-12
4.12861e-12
3.40801e-13
4.97629e-12
3.3689e-11
5.10185e-11
1.85573e-13
1.01182e-14
8.2655e-14
1.09233e-13
1.89983e-13
5.84568e-13
3.37458e-13
1.11201e-12
8.52002e-14
1.49959e-12
4.63932e-14
1.01182e-14
2.06637e-14
1.56046e-14
1.89983e-13
8.35097e-14
8.43644e-14
3.57857e-13
2.13e-14
4.50637e-13
2.31966e-14
1.01182e-14
3.3062e-13
4.83744e-13
1.89983e-13
2.5888e-12
1.34983e-12
4.12861e-12
3.40801e-13
4.97629e-12
3.3689e-11
5.10518e-11
1.85573e-13
1.01182e-14
8.2655e-14
1.09233e-13
1.89983e-13
5.84568e-13
3.37458e-13
1.11201e-12
8.52002e-14
1.49959e-12
4.63932e-14
1.01182e-14
2.06637e-14
1.56046e-14
1.89983e-13
8.35097e-14
8.43644e-14
3.57857e-13
2.13e-14
4.50637e-13
2.31966e-14
1.01182e-14
3.3062e-13
4.83744e-13
1.89983e-13
2.5888e-12
1.34983e-12
4.12861e-12
3.40801e-13
4.97629e-12
3.3689e-11
5.10241e-11
1.85573e-13
1.01182e-14
8.2655e-14
1.09233e-13
1.89983e-13
5.84568e-13
3.37458e-13
1.11201e-12
8.52002e-14
1.49959e-12
4.63932e-14
1.01182e-14
2.06637e-14
1.56046e-14
1.89983e-13
8.35097e-14
8.43644e-14
3.57857e-13
2.13e-14
4.50637e-13
2.31966e-14
1.01182e-14
3.3062e-13
4.83744e-13
1.89983e-13
2.5888e-12
1.34983e-12
4.12861e-12
3.40801e-13
4.97629e-12
3.3689e-11
5.10708e-11
1.85573e-13
1.01182e-14
8.2655e-14
1.09233e-13
1.89983e-13
5.84568e-13
3.37458e-13
1.11201e-12
8.52002e-14
1.49959e-12
4.63932e-14
1.01182e-14
2.06637e-14
1.56046e-14
1.89983e-13
8.35097e-14
8.43644e-14
3.57857e-13
2.13e-14
4.50637e-13
2.31966e-14
1.01182e-14
3.3062e-13
4.83744e-13
1.89983e-13
2.5888e-12
1.34983e-12
4.12861e-12
3.40801e-13
4.97629e-12
3.3689e-11
5.10088e-11
1.85573e-13
1.01182e-14
8.2655e-14
1.09233e-13
1.89983e-13
5.84568e-13
3.37458e-13
1.11201e-12
8.52002e-14
1.49959e-12
4.63932e-14
1.01182e-14
2.06637e-14
1.56046e-14
1.89983e-13
8.35097e-14
8.43644e-14
3.57857e-13
2.13e-14
4.50637e-13
2.31966e-14
1.01182e-14
3.3062e-13
4.83744e-13
1.89983e-13
2.5888e-12
1.34983e-12
4.12861e-12
3.40801e-13
4.97629e-12
3.3689e-11
5.10362e-11
1.85573e-13
1.01182e-14
8.2655e-14
1.09233e-13
1.89983e-13
5.84568e-13
3.37458e-13
1.11201e-12
8.52002e-14
1.49959e-12
4.63932e-14
1.01182e-14
2.06637e-14
1.56046e-14
1.89983e-13
8.35097e-14
8.43644e-14
3.57857e-13
2.13e-14
4.50637e-13
2.31966e-14
1.01182e-14
3.3062e-13
4.83744e-13
1.89983e-13
2.5888e-12
1.34983e-12
4.12861e-12
3.40801e-13
4.97629e-12
3.3689e-11
5.10517e-11
1.85573e-13
1.01182e-14
8.2655e-14
1.09233e-13
1.89983e-13
5.84568e-13
3.37458e-13
1.11201e-12
8.52002e-14
1.49959e-12
4.63932e-14
1.01182e-14
2.06637e-14
1.56046e-14
1.89983e-13
8.35097e-14
8.43644e-14
3.57857e-13
2.13e-14
4.50637e-13
2.31966e-14
1.01182e-14
3.3062e-13
4.83744e-13
1.89983e-13
2.5888e-12
1.34983e-12
4.12861e-12
3.40801e-13
4.97629e-12
3.3689e-11
5.10179e-11
1.85573e-13
1.01182e-14
8.2655e-14
1.09233e-13
1.89983e-13
5.84568e-13
3.37458e-13
1.11201e-12
8.52002e-14
1.49959e-12
[...]
1.09233e-13
1.89983e-13
5.84568e-13
3.37458e-13
1.11201e-12
8.52002e-14
1.49959e-12
4.63932e-14
1.01182e-14
2.06637e-14
1.56046e-14
1.89983e-13
8.35097e-14
8.43644e-14
3.57857e-13
2.13e-14
4.50637e-13
2.31966e-14
1.01182e-14
3.3062e-13
4.83744e-13
1.89983e-13
2.5888e-12
1.34983e-12
4.12861e-12
3.40801e-13
4.97629e-12
4.31168e-11
6.0172e-11
1.85573e-13
1.01182e-14
8.2655e-14
1.09233e-13
1.89983e-13
5.84568e-13
3.37458e-13
1.11201e-12
8.52002e-14
1.49959e-12
4.63932e-14
1.01182e-14
2.06637e-14
1.56046e-14
1.89983e-13
8.35097e-14
8.43644e-14
3.57857e-13
2.13e-14
4.50637e-13
2.31966e-14
1.01182e-14
3.3062e-13
4.83744e-13
1.89983e-13
2.5888e-12
1.34983e-12
4.12861e-12
3.40801e-13
4.97629e-12
4.31168e-11
6.14623e-11
1.85573e-13
1.01182e-14
8.2655e-14
1.09233e-13
1.89983e-13
5.84568e-13
3.37458e-13
1.11201e-12
8.52002e-14
1.49959e-12
4.63932e-14
1.01182e-14
2.06637e-14
1.56046e-14
1.89983e-13
8.35097e-14
8.43644e-14
3.57857e-13
2.13e-14
4.50637e-13
2.31966e-14
1.01182e-14
3.3062e-13
4.83744e-13
1.89983e-13
2.5888e-12
1.34983e-12
4.12861e-12
3.40801e-13
4.97629e-12
4.31168e-11
6.10253e-11
1.85573e-13
1.01182e-14
8.2655e-14
1.09233e-13
1.89983e-13
5.84568e-13
3.37458e-13
1.11201e-12
8.52002e-14
1.49959e-12
4.63932e-14
1.01182e-14
2.06637e-14
1.56046e-14
1.89983e-13
8.35097e-14
8.43644e-14
3.57857e-13
2.13e-14
4.50637e-13
2.31966e-14
1.01182e-14
3.3062e-13
4.83744e-13
1.89983e-13
2.5888e-12
1.34983e-12
4.12861e-12
3.40801e-13
4.97629e-12
4.31168e-11
6.15273e-11
1.85573e-13
1.01182e-14
8.2655e-14
1.09233e-13
1.89983e-13
5.84568e-13
3.37458e-13
1.11201e-12
8.52002e-14
1.49959e-12
4.63932e-14
1.01182e-14
2.06637e-14
1.56046e-14
1.89983e-13
8.35097e-14
8.43644e-14
3.57857e-13
2.13e-14
4.50637e-13
2.31966e-14
1.01182e-14
3.3062e-13
4.83744e-13
1.89983e-13
2.5888e-12
1.34983e-12
4.12861e-12
3.40801e-13
4.97629e-12
4.31168e-11
6.00465e-11
1.85573e-13
1.01182e-14
8.2655e-14
1.09233e-13
1.89983e-13
5.84568e-13
3.37458e-13
1.11201e-12
8.52002e-14
1.49959e-12
4.63932e-14
1.01182e-14
2.06637e-14
1.56046e-14
1.89983e-13
8.35097e-14
8.43644e-14
3.57857e-13
2.13e-14
4.50637e-13
2.31966e-14
1.01182e-14
3.3062e-13
4.83744e-13
1.89983e-13
2.5888e-12
1.34983e-12
4.12861e-12
3.40801e-13
4.97629e-12
4.42953e-11
6.34323e-11
1.85573e-13
1.01182e-14
8.2655e-14
1.09233e-13
1.89983e-13
5.84568e-13
3.37458e-13
1.11201e-12
8.52002e-14
1.49959e-12
4.63932e-14
1.01182e-14
2.06637e-14
1.56046e-14
1.89983e-13
8.35097e-14
8.43644e-14
3.57857e-13
2.13e-14
4.50637e-13
2.31966e-14
1.01182e-14
3.3062e-13
4.83744e-13
1.89983e-13
2.5888e-12
1.34983e-12
4.12861e-12
3.40801e-13
4.97629e-12
4.42953e-11
6.27888e-11
1.85573e-13
1.01182e-14
8.2655e-14
1.09233e-13
1.89983e-13
5.84568e-13
3.37458e-13
1.11201e-12
8.52002e-14
1.49959e-12
4.63932e-14
1.01182e-14
2.06637e-14
1.56046e-14
1.89983e-13
8.35097e-14
8.43644e-14
3.57857e-13
2.13e-14
4.50637e-13
2.31966e-14
1.01182e-14
3.3062e-13
4.83744e-13
1.89983e-13
2.5888e-12
1.34983e-12
4.12861e-12
3.40801e-13
4.97629e-12
4.42953e-11
6.17724e-11
1.85573e-13
1.01182e-14
8.2655e-14
1.09233e-13
1.89983e-13
5.84568e-13
3.37458e-13
1.11201e-12
8.52002e-14
1.49959e-12
4.63932e-14
1.01182e-14
2.06637e-14
1.56046e-14
1.89983e-13
8.35097e-14
8.43644e-14
3.57857e-13
2.13e-14
4.50637e-13
2.31966e-14
1.01182e-14
3.3062e-13
4.83744e-13
1.89983e-13
2.5888e-12
1.34983e-12
4.12861e-12
3.40801e-13
4.97629e-12
4.42953e-11
6.13801e-11
1.85573e-13
1.01182e-14
8.2655e-14
1.09233e-13
1.89983e-13
5.84568e-13
3.37458e-13
1.11201e-12
8.52002e-14
1.49959e-12
4.63932e-14
1.01182e-14
2.06637e-14
1.56046e-14
1.89983e-13
8.35097e-14
8.43644e-14
3.57857e-13
2.13e-14
4.50637e-13
2.31966e-14
1.01182e-14
3.3062e-13
4.83744e-13
1.89983e-13
2.5888e-12
1.34983e-12
4.12861e-12
3.40801e-13
4.97629e-12
4.42953e-11
6.28916e-11
1.85573e-13
1.01182e-14
8.2655e-14
1.09233e-13
1.89983e-13
5.84568e-13
3.37458e-13
1.11201e-12
8.52002e-14
1.49959e-12
4.63932e-14
1.01182e-14
2.06637e-14
1.56046e-14
1.89983e-13
8.35097e-14
8.43644e-14
3.57857e-13
2.13e-14
4.50637e-13
2.31966e-14
1.01182e-14
3.3062e-13
4.83744e-13
1.89983e-13
2.5888e-12
1.34983e-12
4.12861e-12
3.40801e-13
4.97629e-12
4.42953e-11
6.34321e-11
1.85573e-13
1.01182e-14
8.2655e-14
1.09233e-13
1.89983e-13
5.84568e-13
3.37458e-13
1.11201e-12
8.52002e-14
1.49959e-12
4.63932e-14
1.01182e-14
2.06637e-14
1.56046e-14
1.89983e-13
8.35097e-14
8.43644e-14
3.57857e-13
2.13e-14
4.50637e-13
2.31966e-14
1.01182e-14
3.3062e-13
4.83744e-13
1.89983e-13
2.5888e-12
1.34983e-12
4.12861e-12
3.40801e-13
4.97629e-12
4.42953e-11
6.20118e-11
1.85573e-13
1.01182e-14
8.2655e-14
1.09233e-13
1.89983e-13
5.84568e-13
3.37458e-13
1.11201e-12
8.52002e-14
1.49959e-12
4.63932e-14
1.01182e-14
2.06637e-14
1.56046e-14
1.89983e-13
8.35097e-14
8.43644e-14
3.57857e-13
2.13e-14
4.50637e-13
2.31966e-14
1.01182e-14
3.3062e-13
4.83744e-13
1.89983e-13
2.5888e-12
1.34983e-12
4.12861e-12
3.40801e-13
4.97629e-12
4.42953e-11
6.14092e-11
1.85573e-13
1.01182e-14
8.2655e-14
1.09233e-13
1.89983e-13
5.84568e-13
3.37458e-13
1.11201e-12
8.52002e-14
1.49959e-12
4.63932e-14
1.01182e-14
2.06637e-14
1.56046e-14
1.89983e-13
8.35097e-14
8.43644e-14
3.57857e-13
2.13e-14
4.50637e-13
2.31966e-14
1.01182e-14
3.3062e-13
4.83744e-13
1.89983e-13
2.5888e-12
1.34983e-12
4.12861e-12
3.40801e-13
4.97629e-12
4.42953e-11
6.29075e-11
1.85573e-13
1.01182e-14
8.2655e-14
1.09233e-13
1.89983e-13
5.84568e-13
3.37458e-13
1.11201e-12
8.52002e-14
1.49959e-12
4.63932e-14
1.01182e-14
2.06637e-14
1.56046e-14
1.89983e-13
8.35097e-14
8.43644e-14
3.57857e-13
2.13e-14
4.50637e-13
2.31966e-14
1.01182e-14
3.3062e-13
4.83744e-13
1.89983e-13
2.5888e-12
1.34983e-12
4.12861e-12
3.40801e-13
4.97629e-12
4.42953e-11
6.33704e-11
1.85573e-13
1.01182e-14
8.2655e-14
1.09233e-13
1.89983e-13
5.84568e-13
3.37458e-13
1.11201e-12
8.52002e-14
1.49959e-12
4.63932e-14
1.01182e-14
2.06637e-14
1.56046e-14
1.89983e-13
8.35097e-14
8.43644e-14
3.57857e-13
2.13e-14
4.50637e-13
2.31966e-14
1.01182e-14
3.3062e-13
4.83744e-13
1.89983e-13
2.5888e-12
1.34983e-12
4.12861e-12
3.40801e-13
4.97629e-12
4.42953e-11
6.20841e-11
1.85573e-13
1.01182e-14
8.2655e-14
1.09233e-13
1.89983e-13
5.84568e-13
3.37458e-13
1.11201e-12
8.52002e-14
1.49959e-12
4.63932e-14
1.01182e-14
2.06637e-14
1.56046e-14
1.89983e-13
8.35097e-14
8.43644e-14
3.57857e-13
2.13e-14
4.50637e-13
2.31966e-14
1.01182e-14
3.3062e-13
4.83744e-13
1.89983e-13
2.5888e-12
1.34983e-12
4.12861e-12
3.40801e-13
4.97629e-12
4.42953e-11
6.15761e-11
1.85573e-13
1.01182e-14
8.2655e-14
1.09233e-13
1.89983e-13
5.84568e-13
3.37458e-13
1.11201e-12
8.52002e-14
1.49959e-12
4.63932e-14
1.01182e-14
2.06637e-14
1.56046e-14
1.89983e-13
8.35097e-14
8.43644e-14
3.57857e-13
2.13e-14
4.50637e-13
2.31966e-14
1.01182e-14
3.3062e-13
4.83744e-13
1.89983e-13
2.5888e-12
1.34983e-12
4.12861e-12
3.40801e-13
4.97629e-12
4.42953e-11
6.2943e-11
1.85573e-13
1.01182e-14
8.2655e-14
1.09233e-13
1.89983e-13
5.84568e-13
3.37458e-13
1.11201e-12
8.52002e-14
1.49959e-12
4.63932e-14
1.01182e-14
2.06637e-14
1.56046e-14
1.89983e-13
8.35097e-14
8.43644e-14
3.57857e-13
2.13e-14
4.50637e-13
2.31966e-14
1.01182e-14
3.3062e-13
4.83744e-13
1.89983e-13
2.5888e-12
1.34983e-12
4.12861e-12
3.40801e-13
4.97629e-12
4.42953e-11
6.18579e-11
1.85573e-13
1.01182e-14
8.2655e-14
1.09233e-13
1.89983e-13
5.84568e-13
3.37458e-13
1.11201e-12
8.52002e-14
1.49959e-12
4.63932e-14
1.01182e-14
2.06637e-14
1.56046e-14
1.89983e-13
8.35097e-14
8.43644e-14
3.57857e-13
2.13e-14
4.50637e-13
2.31966e-14
1.01182e-14
3.3062e-13
4.83744e-13
1.89983e-13
2.5888e-12
1.34983e-12
4.12861e-12
3.40801e-13
4.97629e-12
4.42953e-11
6.33518e-11
1.85573e-13
1.01182e-14
8.2655e-14
1.09233e-13
1.89983e-13
5.84568e-13
3.37458e-13
1.11201e-12
8.52002e-14
1.49959e-12
4.63932e-14
1.01182e-14
2.06637e-14
1.56046e-14
1.89983e-13
8.35097e-14
8.43644e-14
3.57857e-13
2.13e-14
4.50637e-13
2.31966e-14
1.01182e-14
3.3062e-13
4.83744e-13
1.89983e-13
2.5888e-12
1.34983e-12
4.12861e-12
3.40801e-13
4.97629e-12
4.42953e-11
6.13044e-11
1.85573e-13
1.01182e-14
8.2655e-14
1.09233e-13
1.89983e-13
5.84568e-13
3.37458e-13
1.11201e-12
8.52002e-14
1.49959e-12
4.63932e-14
1.01182e-14
2.06637e-14
1.56046e-14
1.89983e-13
8.35097e-14
8.43644e-14
3.57857e-13
2.13e-14
4.50637e-13
2.31966e-14
1.01182e-14
3.3062e-13
4.83744e-13
1.89983e-13
2.5888e-12
1.34983e-12
4.12861e-12
3.40801e-13
4.97629e-12
4.54738e-11
6.3677e-11
1.85573e-13
1.01182e-14
8.2655e-14
1.09233e-13
1.89983e-13
5.84568e-13
3.37458e-13
1.11201e-12
8.52002e-14
1.49959e-12
4.63932e-14
1.01182e-14
2.06637e-14
1.56046e-14
1.89983e-13
8.35097e-14
8.43644e-14
3.57857e-13
2.13e-14
4.50637e-13
2.31966e-14
1.01182e-14
3.3062e-13
4.83744e-13
1.89983e-13
2.5888e-12
1.34983e-12
4.12861e-12
3.40801e-13
4.97629e-12
4.54738e-11
6.39145e-11
1.85573e-13
1.01182e-14
8.2655e-14
1.09233e-13
1.89983e-13
5.84568e-13
3.37458e-13
1.11201e-12
8.52002e-14
1.49959e-12
4.63932e-14
1.01182e-14
2.06637e-14
1.56046e-14
1.89983e-13
8.35097e-14
8.43644e-14
3.57857e-13
2.13e-14
4.50637e-13
2.31966e-14
1.01182e-14
3.3062e-13
4.83744e-13
1.89983e-13
2.5888e-12
1.34983e-12
4.12861e-12
3.40801e-13
4.97629e-12
4.54738e-11
6.34743e-11
1.85573e-13
1.01182e-14
8.2655e-14
1.09233e-13
1.89983e-13
5.84568e-13
3.37458e-13
1.11201e-12
8.52002e-14
1.49959e-12
4.63932e-14
1.01182e-14
2.06637e-14
1.56046e-14
1.89983e-13
8.35097e-14
8.43644e-14
3.57857e-13
2.13e-14
4.50637e-13
2.31966e-14
1.01182e-14
3.3062e-13
4.83744e-13
1.89983e-13
2.5888e-12
1.34983e-12
4.12861e-12
3.40801e-13
4.97629e-12
4.54738e-11
6.24841e-11
1.85573e-13
1.01182e-14
8.2655e-14
1.09233e-13
1.89983e-13
5.84568e-13
3.37458e-13
1.11201e-12
8.52002e-14
1.49959e-12
4.63932e-14
1.01182e-14
2.06637e-14
1.56046e-14
1.89983e-13
8.35097e-14
8.43644e-14
3.57857e-13
2.13e-14
4.50637e-13
2.31966e-14
1.01182e-14
3.3062e-13
4.83744e-13
1.89983e-13
2.5888e-12
1.34983e-12
4.12861e-12
3.40801e-13
4.97629e-12
4.54738e-11
6.36712e-11
1.85573e-13
1.01182e-14
8.2655e-14
1.09233e-13
1.89983e-13
5.84568e-13
3.37458e-13
1.11201e-12
8.52002e-14
1.49959e-12
4.63932e-14
1.01182e-14
2.06637e-14
1.56046e-14
1.89983e-13
8.35097e-14
8.43644e-14
3.57857e-13
2.13e-14
4.50637e-13
2.31966e-14
1.01182e-14
3.3062e-13
4.83744e-13
1.89983e-13
2.5888e-12
1.34983e-12
4.12861e-12
3.40801e-13
4.97629e-12
4.54738e-11
6.3773e-11
1.85573e-13
1.01182e-14
8.2655e-14
1.09233e-13
1.89983e-13
5.84568e-13
3.37458e-13
1.11201e-12
8.52002e-14
1.49959e-12
4.63932e-14
1.01182e-14
2.06637e-14
1.56046e-14
1.89983e-13
8.35097e-14
8.43644e-14
3.57857e-13
2.13e-14
4.50637e-13
2.31966e-14
1.01182e-14
3.3062e-13
4.83744e-13
1.89983e-13
2.5888e-12
1.34983e-12
4.12861e-12
3.40801e-13
4.97629e-12
4.54738e-11
6.28709e-11
1.85573e-13
1.01182e-14
8.2655e-14
1.09233e-13
1.89983e-13
5.84568e-13
3.37458e-13
1.11201e-12
8.52002e-14
1.49959e-12
4.63932e-14
1.01182e-14
2.06637e-14
1.56046e-14
1.89983e-13
8.35097e-14
8.43644e-14
3.57857e-13
2.13e-14
4.50637e-13
2.31966e-14
1.01182e-14
3.3062e-13
4.83744e-13
1.89983e-13
2.5888e-12
1.34983e-12
4.12861e-12
3.40801e-13
4.97629e-12
4.54738e-11
6.20111e-11
1.85573e-13
1.01182e-14
8.2655e-14
1.09233e-13
1.89983e-13
5.84568e-13
3.37458e-13
1.11201e-12
8.52002e-14
1.49959e-12
4.63932e-14
1.01182e-14
2.06637e-14
1.56046e-14
1.89983e-13
8.35097e-14
8.43644e-14
3.57857e-13
2.13e-14
4.50637e-13
2.31966e-14
1.01182e-14
3.3062e-13
4.83744e-13
1.89983e-13
2.5888e-12
1.34983e-12
4.12861e-12
3.40801e-13
4.97629e-12
4.54738e-11
6.36782e-11
1.85573e-13
1.01182e-14
8.2655e-14
1.09233e-13
1.89983e-13
5.84568e-13
3.37458e-13
1.11201e-12
8.52002e-14
1.49959e-12
4.63932e-14
1.01182e-14
2.06637e-14
1.56046e-14
1.89983e-13
8.35097e-14
8.43644e-14
3.57857e-13
2.13e-14
4.50637e-13
2.31966e-14
1.01182e-14
3.3062e-13
4.83744e-13
1.89983e-13
2.5888e-12
1.34983e-12
4.12861e-12
3.40801e-13
4.97629e-12
4.54738e-11
6.37637e-11
1.85573e-13
1.01182e-14
8.2655e-14
1.09233e-13
1.89983e-13
5.84568e-13
3.37458e-13
1.11201e-12
8.52002e-14
1.49959e-12
4.63932e-14
1.01182e-14
2.06637e-14
1.56046e-14
1.89983e-13
8.35097e-14
8.43644e-14
3.57857e-13
2.13e-14
4.50637e-13
2.31966e-14
1.01182e-14
3.3062e-13
4.83744e-13
1.89983e-13
2.5888e-12
1.34983e-12
4.12861e-12
3.40801e-13
4.97629e-12
4.54738e-11
6.31311e-11
1.85573e-13
1.01182e-14
8.2655e-14
1.09233e-13
1.89983e-13
5.84568e-13
3.37458e-13
1.11201e-12
8.52002e-14
1.49959e-12
4.63932e-14
1.01182e-14
2.06637e-14
1.56046e-14
1.89983e-13
8.35097e-14
8.43644e-14
3.57857e-13
2.13e-14
4.50637e-13
2.31966e-14
1.01182e-14
3.3062e-13
4.83744e-13
1.89983e-13
2.5888e-12
1.34983e-12
4.12861e-12
3.40801e-13
4.97629e-12
4.54738e-11
6.21588e-11
1.85573e-13
1.01182e-14
8.2655e-14
1.09233e-13
1.89983e-13
5.84568e-13
3.37458e-13
1.11201e-12
8.52002e-14
1.49959e-12
4.63932e-14
1.01182e-14
2.06637e-14
1.56046e-14
1.89983e-13
8.35097e-14
8.43644e-14
3.57857e-13
2.13e-14
4.50637e-13
2.31966e-14
1.01182e-14
3.3062e-13
4.83744e-13
1.89983e-13
2.5888e-12
1.34983e-12
4.12861e-12
3.40801e-13
4.97629e-12
4.54738e-11
6.36018e-11
1.85573e-13
1.01182e-14
8.2655e-14
1.09233e-13
1.89983e-13
5.84568e-13
3.37458e-13
1.11201e-12
8.52002e-14
1.49959e-12
4.63932e-14
1.01182e-14
2.06637e-14
1.56046e-14
1.89983e-13
8.35097e-14
8.43644e-14
3.57857e-13
2.13e-14
4.50637e-13
2.31966e-14
1.01182e-14
3.3062e-13
4.83744e-13
1.89983e-13
2.5888e-12
1.34983e-12
4.12861e-12
3.40801e-13
4.97629e-12
4.54738e-11
6.30876e-11
1.85573e-13
1.01182e-14
8.2655e-14
1.09233e-13
1.89983e-13
5.84568e-13
3.37458e-13
1.11201e-12
8.52002e-14
1.49959e-12
4.63932e-14
1.01182e-14
2.06637e-14
1.56046e-14
1.89983e-13
8.35097e-14
8.43644e-14
3.57857e-13
2.13e-14
4.50637e-13
2.31966e-14
1.01182e-14
3.3062e-13
4.83744e-13
1.89983e-13
2.5888e-12
1.34983e-12
4.12861e-12
3.40801e-13
4.97629e-12
4.54738e-11
6.37555e-11
1.85573e-13
1.01182e-14
8.2655e-14
1.09233e-13
1.89983e-13
5.84568e-13
3.37458e-13
1.11201e-12
8.52002e-14
1.49959e-12
4.63932e-14
1.01182e-14
2.06637e-14
1.56046e-14
1.89983e-13
8.35097e-14
8.43644e-14
3.57857e-13
2.13e-14
4.50637e-13
2.31966e-14
1.01182e-14
3.3062e-13
4.83744e-13
1.89983e-13
2.5888e-12
1.34983e-12
4.12861e-12
3.40801e-13
4.97629e-12
4.54738e-11
6.22359e-11
1.85573e-13
1.01182e-14
8.2655e-14
1.09233e-13
1.89983e-13
5.84568e-13
3.37458e-13
1.11201e-12
8.52002e-14
1.49959e-12
4.63932e-14
1.01182e-14
2.06637e-14
1.56046e-14
1.89983e-13
8.35097e-14
8.43644e-14
3.57857e-13
2.13e-14
4.50637e-13
2.31966e-14
1.01182e-14
3.3062e-13
4.83744e-13
1.89983e-13
2.5888e-12
1.34983e-12
4.12861e-12
3.40801e-13
4.97629e-12
4.66523e-11
6.58948e-11
1.85573e-13
1.01182e-14
8.2655e-14
1.09233e-13
1.89983e-13
5.84568e-13
3.37458e-13
1.11201e-12
8.52002e-14
1.49959e-12
4.63932e-14
1.01182e-14
2.06637e-14
1.56046e-14
1.89983e-13
8.35097e-14
8.43644e-14
3.57857e-13
2.13e-14
4.50637e-13
2.31966e-14
1.01182e-14
3.3062e-13
4.83744e-13
1.89983e-13
2.5888e-12
1.34983e-12
4.12861e-12
3.40801e-13
4.97629e-12
4.66523e-11
6.60275e-11
1.85573e-13
1.01182e-14
8.2655e-14
1.09233e-13
1.89983e-13
5.84568e-13
3.37458e-13
1.11201e-12
8.52002e-14
1.49959e-12
4.63932e-14
1.01182e-14
2.06637e-14
1.56046e-14
1.89983e-13
8.35097e-14
8.43644e-14
3.57857e-13
2.13e-14
4.50637e-13
2.31966e-14
1.01182e-14
3.3062e-13
4.83744e-13
1.89983e-13
2.5888e-12
1.34983e-12
4.12861e-12
3.40801e-13
4.97629e-12
4.66523e-11
6.46721e-11
1.85573e-13
1.01182e-14
8.2655e-14
1.09233e-13
1.89983e-13
5.84568e-13
3.37458e-13
1.11201e-12
8.52002e-14
1.49959e-12
4.63932e-14
1.01182e-14
2.06637e-14
1.56046e-14
1.89983e-13
8.35097e-14
8.43644e-14
3.57857e-13
2.13e-14
4.50637e-13
2.31966e-14
1.01182e-14
3.3062e-13
4.83744e-13
1.89983e-13
2.5888e-12
1.34983e-12
4.12861e-12
3.40801e-13
4.97629e-12
4.66523e-11
6.40415e-11
1.85573e-13
1.01182e-14
8.2655e-14
1.09233e-13
1.89983e-13
5.84568e-13
3.37458e-13
1.11201e-12
8.52002e-14
1.49959e-12
4.63932e-14
1.01182e-14
2.06637e-14
1.56046e-14
1.89983e-13
8.35097e-14
8.43644e-14
3.57857e-13
2.13e-14
4.50637e-13
2.31966e-14
1.01182e-14
3.3062e-13
4.83744e-13
1.89983e-13
2.5888e-12
1.34983e-12
4.12861e-12
3.40801e-13
4.97629e-12
4.66523e-11
6.58517e-11
1.85573e-13
1.01182e-14
8.2655e-14
1.09233e-13
1.89983e-13
5.84568e-13
3.37458e-13
1.11201e-12
8.52002e-14
1.49959e-12
4.63932e-14
1.01182e-14
2.06637e-14
1.56046e-14
1.89983e-13
8.35097e-14
8.43644e-14
3.57857e-13
2.13e-14
4.50637e-13
2.31966e-14
1.01182e-14
3.3062e-13
4.83744e-13
1.89983e-13
2.5888e-12
1.34983e-12
4.12861e-12
3.40801e-13
4.97629e-12
4.66523e-11
6.54292e-11
1.85573e-13
1.01182e-14
8.2655e-14
1.09233e-13
1.89983e-13
5.84568e-13
3.37458e-13
1.11201e-12
8.52002e-14
1.49959e-12
4.63932e-14
1.01182e-14
2.06637e-14
1.56046e-14
1.89983e-13
8.35097e-14
8.43644e-14
3.57857e-13
2.13e-14
4.50637e-13
2.31966e-14
1.01182e-14
3.3062e-13
4.83744e-13
1.89983e-13
2.5888e-12
1.34983e-12
4.12861e-12
3.40801e-13
4.97629e-12
4.66523e-11
6.42405e-11
1.85573e-13
1.01182e-14
8.2655e-14
1.09233e-13
1.89983e-13
5.84568e-13
3.37458e-13
1.11201e-12
8.52002e-14
1.49959e-12
4.63932e-14
1.01182e-14
2.06637e-14
1.56046e-14
1.89983e-13
8.35097e-14
8.43644e-14
3.57857e-13
2.13e-14
4.50637e-13
2.31966e-14
1.01182e-14
3.3062e-13
4.83744e-13
1.89983e-13
2.5888e-12
1.34983e-12
4.12861e-12
3.40801e-13
4.97629e-12
4.66523e-11
6.35069e-11
1.85573e-13
1.01182e-14
8.2655e-14
1.09233e-13
1.89983e-13
5.84568e-13
3.37458e-13
1.11201e-12
8.52002e-14
1.49959e-12
4.63932e-14
1.01182e-14
2.06637e-14
1.56046e-14
1.89983e-13
8.35097e-14
8.43644e-14
3.57857e-13
2.13e-14
4.50637e-13
2.31966e-14
1.01182e-14
3.3062e-13
4.83744e-13
1.89983e-13
2.5888e-12
1.34983e-12
4.12861e-12
3.40801e-13
4.97629e-12
4.66523e-11
6.52153e-11
1.85573e-13
1.01182e-14
8.2655e-14
1.09233e-13
1.89983e-13
5.84568e-13
3.37458e-13
1.11201e-12
8.52002e-14
1.49959e-12
4.63932e-14
1.01182e-14
2.06637e-14
1.56046e-14
1.89983e-13
8.35097e-14
8.43644e-14
3.57857e-13
2.13e-14
4.50637e-13
2.31966e-14
1.01182e-14
3.3062e-13
4.83744e-13
1.89983e-13
2.5888e-12
1.34983e-12
4.12861e-12
3.40801e-13
4.97629e-12
4.66523e-11
6.56574e-11
1.85573e-13
1.01182e-14
8.2655e-14
1.09233e-13
1.89983e-13
5.84568e-13
3.37458e-13
1.11201e-12
8.52002e-14
1.49959e-12
4.63932e-14
1.01182e-14
2.06637e-14
1.56046e-14
1.89983e-13
8.35097e-14
8.43644e-14
3.57857e-13
2.13e-14
4.50637e-13
2.31966e-14
1.01182e-14
3.3062e-13
4.83744e-13
1.89983e-13
2.5888e-12
1.34983e-12
4.12861e-12
3.40801e-13
4.97629e-12
4.66523e-11
6.43081e-11
1.85573e-13
1.01182e-14
8.2655e-14
1.09233e-13
1.89983e-13
5.84568e-13
3.37458e-13
1.11201e-12
8.52002e-14
1.49959e-12
4.63932e-14
1.01182e-14
2.06637e-14
1.56046e-14
1.89983e-13
8.35097e-14
8.43644e-14
3.57857e-13
2.13e-14
4.50637e-13
2.31966e-14
1.01182e-14
3.3062e-13
4.83744e-13
1.89983e-13
2.5888e-12
1.34983e-12
4.12861e-12
3.40801e-13
4.97629e-12
4.66523e-11
6.36812e-11
1.85573e-13
1.01182e-14
8.2655e-14
1.09233e-13
1.89983e-13
5.84568e-13
3.37458e-13
1.11201e-12
8.52002e-14
1.49959e-12
4.63932e-14
1.01182e-14
2.06637e-14
1.56046e-14
1.89983e-13
8.35097e-14
8.43644e-14
3.57857e-13
2.13e-14
4.50637e-13
2.31966e-14
1.01182e-14
3.3062e-13
4.83744e-13
1.89983e-13
2.5888e-12
1.34983e-12
4.12861e-12
3.40801e-13
4.97629e-12
4.66523e-11
6.4946e-11
1.85573e-13
1.01182e-14
8.2655e-14
1.09233e-13
1.89983e-13
5.84568e-13
3.37458e-13
1.11201e-12
8.52002e-14
1.49959e-12
4.63932e-14
1.01182e-14
2.06637e-14
1.56046e-14
1.89983e-13
8.35097e-14
8.43644e-14
3.57857e-13
2.13e-14
4.50637e-13
2.31966e-14
1.01182e-14
3.3062e-13
4.83744e-13
1.89983e-13
2.5888e-12
1.34983e-12
4.12861e-12
3.40801e-13
4.97629e-12
4.66523e-11
6.39958e-11
1.85573e-13
1.01182e-14
8.2655e-14
1.09233e-13
1.89983e-13
5.84568e-13
3.37458e-13
1.11201e-12
8.52002e-14
1.49959e-12
4.63932e-14
1.01182e-14
2.06637e-14
1.56046e-14
1.89983e-13
8.35097e-14
8.43644e-14
3.57857e-13
2.13e-14
4.50637e-13
2.31966e-14
1.01182e-14
3.3062e-13
4.83744e-13
1.89983e-13
2.5888e-12
1.34983e-12
4.12861e-12
3.40801e-13
4.97629e-12
4.66523e-11
6.54792e-11
1.85573e-13
1.01182e-14
8.2655e-14
1.09233e-13
1.89983e-13
5.84568e-13
3.37458e-13
1.11201e-12
8.52002e-14
1.49959e-12
4.63932e-14
1.01182e-14
2.06637e-14
1.56046e-14
1.89983e-13
8.35097e-14
8.43644e-14
3.57857e-13
2.13e-14
4.50637e-13
2.31966e-14
1.01182e-14
3.3062e-13
4.83744e-13
1.89983e-13
2.5888e-12
1.34983e-12
4.12861e-12
3.40801e-13
4.97629e-12
4.66523e-11
6.34119e-11
