BEGIN Configuration File: /Users/yash/Projects/wsc-noc-dvfs/final_paper_sims/flatfly/flatfly_hw_reactive_inj0.6_cap0.7/config.cfg

// Final Paper Simulation Config
// Topology: flatfly, Policy: hw_reactive
// Injection Rate: 0.6, Power Cap: 0.7W

// VC Configuration
read_request_begin_vc  = 0;
read_request_end_vc    = 5;
write_reply_begin_vc   = 2;
write_reply_end_vc     = 7;
read_reply_begin_vc    = 8;
read_reply_end_vc      = 12;
write_request_begin_vc = 10;
write_request_end_vc   = 15;
num_vcs     = 16;
vc_buf_size = 8;
wait_for_tail_credit = 0;
vc_allocator = max_size;
sw_allocator = max_size;
alloc_iters  = 2;
credit_delay   = 2;
routing_delay  = 0;
vc_alloc_delay = 1;
sw_alloc_delay = 1;
st_final_delay = 1;
input_speedup     = 1;
output_speedup    = 1;
internal_speedup  = 1.0;

// Detailed simulation settings (longer runs for accuracy)
sim_type = latency;
warmup_periods = 3;
sim_count = 1;
sample_period  = 10000;
max_samples = 15;
use_read_write = 0;
batch_size = 10000;
latency_thres = 5000;
packet_size = 1;

// Topology

topology = flatfly;
subnets = 1;
c  = 4;
k  = 4;
n  = 2;
x  = 4;
y  = 4;
xr = 2;
yr = 2;
limit = 64;
routing_function = ran_min;


// Traffic - 2 classes with different priorities
// Using uniform traffic with configurable injection rate
// Split injection: 30% control (class 0), 70% batch (class 1)
traffic = uniform;
injection_rate = {0.18,0.42};

// 2-class traffic for SLO-aware policies
classes = 2;
class_priority = {1,0};
class_slo = {50,-1};
priority_policy = static_class;

// Orion power model
use_orion = 1;
Vdd = 1.0;
Orion_tr = 0.2;
Orion_Freq = 1e9;
Orion_inport = 5;
Orion_outport = 5;
Orion_bitwidth = 128;
Orion_vc_class = 1;
Orion_IsSharedBuffIn = 0;
Orion_IsSharedBuffOut = 0;
Orion_crossbar_model = 0;
Orion_crsbar_degree = 4;
Orion_Cxbar_Cxpoint = 0;
Orion_trans_type = 0;
Orion_IsInBuff = 1;
Orion_out_buf_size = 0;
Orion_IsOutBuff = 0;
Orion_buff_type = 0;
Orion_in_arb_model = 1;
Orion_out_arb_model = 1;
Orion_allocator_model = 1;
Orion_in_vc_arb_model = 1;
Orion_out_vc_arb_model = 1;
wire_length = 1.0;

// Power cap
power_cap = 0.7;

// DVFS base settings
dvfs_epoch = 10000;
dvfs_log_interval = 10000;
dvfs_freqs = 1.0;
dvfs_voltages = 1.0;
router_domains = 0;

// Policy-specific settings

dvfs_policy = hw_reactive;
dvfs_min_scale = 0.5;
dvfs_max_scale = 1.0;
hw_reactive_signal = queue;
hw_reactive_high_thresh = 0.05;
hw_reactive_low_thresh = 0.01;
hw_reactive_high_scale = 1.0;
hw_reactive_low_scale = 0.5;
hw_reactive_hysteresis_epochs = 2;
hw_reactive_per_router = 1;
hw_reactive_headroom_margin = 0.05;
control_class_id = 0;
control_slo_cycles = 50.0;


// Output files
latency_csv = latency.csv;
stall_csv = stalls.csv;
throughput_csv = throughput.csv;
summary_csv = summary.csv;
energy_csv = energy.csv;
epoch_csv = epoch.csv;
dvfs_log = power_log;
output_dir = /Users/yash/Projects/wsc-noc-dvfs/final_paper_sims/flatfly;
run_name = flatfly_hw_reactive_inj0.6_cap0.7;

END Configuration File: /Users/yash/Projects/wsc-noc-dvfs/final_paper_sims/flatfly/flatfly_hw_reactive_inj0.6_cap0.7/config.cfg
 Flat Bufferfly 
 k = 4 n = 2 c = 4
 each switch - total radix =  10
 # of switches = 16
 # of channels = 96
 # of nodes ( size of network ) = 64
Class 0:
Packet latency average = 19.065
	minimum = 6
	maximum = 80
Network latency average = 19.065
	minimum = 6
	maximum = 80
Slowest packet = 119136
Flit latency average = 19.065
	minimum = 6
	maximum = 80
Slowest flit = 119136
Fragmentation average = 0
	minimum = 0
	maximum = 0
Injected packet rate average = 0.180136
	minimum = 0.1711 (at node 2)
	maximum = 0.1881 (at node 36)
Accepted packet rate average = 0.179808
	minimum = 0.168 (at node 17)
	maximum = 0.1897 (at node 27)
Injected flit rate average = 0.180136
	minimum = 0.1711 (at node 2)
	maximum = 0.1881 (at node 36)
Accepted flit rate average= 0.179808
	minimum = 0.168 (at node 17)
	maximum = 0.1897 (at node 27)
Injected packet length average = 1
Accepted packet length average = 1
Total in-flight flits = 210 (0 measured)
Buffer busy stall rate = 0
Buffer conflict stall rate = 0
Buffer full stall rate = 0
Buffer reserved stall rate = 0.0092625
Crossbar conflict stall rate = 1.48762
Class 1:
Packet latency average = 19.4415
	minimum = 6
	maximum = 77
Network latency average = 18.9877
	minimum = 6
	maximum = 75
Slowest packet = 163565
Flit latency average = 18.9877
	minimum = 6
	maximum = 75
Slowest flit = 163565
Fragmentation average = 0
	minimum = 0
	maximum = 0
Injected packet rate average = 0.419633
	minimum = 0.4089 (at node 18)
	maximum = 0.4322 (at node 45)
Accepted packet rate average = 0.418809
	minimum = 0.3994 (at node 31)
	maximum = 0.4391 (at node 28)
Injected flit rate average = 0.419633
	minimum = 0.4089 (at node 18)
	maximum = 0.4322 (at node 45)
Accepted flit rate average= 0.418809
	minimum = 0.3994 (at node 31)
	maximum = 0.4391 (at node 28)
Injected packet length average = 1
Accepted packet length average = 1
Total in-flight flits = 535 (0 measured)
Buffer busy stall rate = 0
Buffer conflict stall rate = 0
Buffer full stall rate = 0
Buffer reserved stall rate = 0.0221187
Crossbar conflict stall rate = 3.39899
latency change    = 1
throughput change = 1
latency change    = 1
throughput change = 1
DVFS epoch t=10000 total_power=0.768033 headroom=-0.0680334 avg_power=0.768033 domains{0:freq=1,power=0.768033} routers{0:freq=1,power=0.0480081, 1:freq=1,power=0.0480354, 2:freq=1,power=0.0480292, 3:freq=1,power=0.0479905, 4:freq=1,power=0.0479463, 5:freq=1,power=0.0479847, 6:freq=1,power=0.0480142, 7:freq=1,power=0.0479721, 8:freq=1,power=0.0479596, 9:freq=1,power=0.0479888, 10:freq=1,power=0.0480083, 11:freq=1,power=0.0480085, 12:freq=1,power=0.0480352, 13:freq=1,power=0.04801, 14:freq=1,power=0.0480208, 15:freq=1,power=0.0480217}
HW_REACTIVE_DIFF: epoch=1 max_signal=0.0171875 base_scale=0.854214 headroom=-0.0680334
Class 0:
Packet latency average = 22.9551
	minimum = 6
	maximum = 232
Network latency average = 22.9551
	minimum = 6
	maximum = 232
Slowest packet = 744860
Flit latency average = 22.9551
	minimum = 6
	maximum = 232
Slowest flit = 744860
Fragmentation average = 0
	minimum = 0
	maximum = 0
Injected packet rate average = 0.179615
	minimum = 0.17395 (at node 2)
	maximum = 0.18435 (at node 62)
Accepted packet rate average = 0.17937
	minimum = 0.1741 (at node 21)
	maximum = 0.18525 (at node 27)
Injected flit rate average = 0.179615
	minimum = 0.17395 (at node 2)
	maximum = 0.18435 (at node 62)
Accepted flit rate average= 0.17937
	minimum = 0.1741 (at node 21)
	maximum = 0.18525 (at node 27)
Injected packet length average = 1
Accepted packet length average = 1
Total in-flight flits = 314 (0 measured)
Buffer busy stall rate = 0
Buffer conflict stall rate = 3.125e-06
Buffer full stall rate = 0
Buffer reserved stall rate = 0.0530906
Crossbar conflict stall rate = 1.90433
Class 1:
Packet latency average = 23.3399
	minimum = 6
	maximum = 230
Network latency average = 22.8886
	minimum = 6
	maximum = 230
Slowest packet = 491034
Flit latency average = 22.8886
	minimum = 6
	maximum = 230
Slowest flit = 491034
Fragmentation average = 0
	minimum = 0
	maximum = 0
Injected packet rate average = 0.419726
	minimum = 0.4102 (at node 30)
	maximum = 0.42585 (at node 44)
Accepted packet rate average = 0.419151
	minimum = 0.4059 (at node 16)
	maximum = 0.4324 (at node 28)
Injected flit rate average = 0.419726
	minimum = 0.4102 (at node 30)
	maximum = 0.42585 (at node 44)
Accepted flit rate average= 0.419151
	minimum = 0.4059 (at node 16)
	maximum = 0.4324 (at node 28)
Injected packet length average = 1
Accepted packet length average = 1
Total in-flight flits = 741 (0 measured)
Buffer busy stall rate = 0
Buffer conflict stall rate = 0
Buffer full stall rate = 0
Buffer reserved stall rate = 0.129934
Crossbar conflict stall rate = 4.38109
latency change    = 0.169463
throughput change = 0.00244345
latency change    = 0.167028
throughput change = 0.000814519
DVFS epoch t=20000 total_power=0.70489 headroom=-0.00489047 avg_power=0.736462 domains{0:freq=0.744749,power=0.70489} routers{0:freq=0.744749,power=0.0388997, 1:freq=1,power=0.0491783, 2:freq=0.981748,power=0.0484483, 3:freq=0.820452,power=0.0419774, 4:freq=0.943889,power=0.0469249, 5:freq=0.833537,power=0.0424909, 6:freq=0.820452,power=0.0419571, 7:freq=0.761648,power=0.0396192, 8:freq=0.861645,power=0.0435882, 9:freq=0.924212,power=0.0460976, 10:freq=0.792531,power=0.0408907, 11:freq=0.861645,power=0.0436181, 12:freq=0.924212,power=0.0461403, 13:freq=0.861645,power=0.0436435, 14:freq=0.943889,power=0.0469382, 15:freq=0.883144,power=0.0444782}
Class 0:
Packet latency average = 27.4427
	minimum = 6
	maximum = 237
Network latency average = 27.4427
	minimum = 6
	maximum = 237
Slowest packet = 985411
Flit latency average = 27.4427
	minimum = 6
	maximum = 237
Slowest flit = 985411
Fragmentation average = 0
	minimum = 0
	maximum = 0
Injected packet rate average = 0.178775
	minimum = 0.1696 (at node 25)
	maximum = 0.1874 (at node 31)
Accepted packet rate average = 0.178747
	minimum = 0.165 (at node 34)
	maximum = 0.188 (at node 41)
Injected flit rate average = 0.178775
	minimum = 0.1696 (at node 25)
	maximum = 0.1874 (at node 31)
Accepted flit rate average= 0.178747
	minimum = 0.165 (at node 34)
	maximum = 0.188 (at node 41)
Injected packet length average = 1
Accepted packet length average = 1
Total in-flight flits = 332 (0 measured)
Buffer busy stall rate = 0
Buffer conflict stall rate = 0
Buffer full stall rate = 0
Buffer reserved stall rate = 0.120012
Crossbar conflict stall rate = 2.36533
Class 1:
Packet latency average = 27.7723
	minimum = 6
	maximum = 239
Network latency average = 27.3287
	minimum = 6
	maximum = 239
Slowest packet = 1042972
Flit latency average = 27.3287
	minimum = 6
	maximum = 239
Slowest flit = 1042972
Fragmentation average = 0
	minimum = 0
	maximum = 0
Injected packet rate average = 0.419759
	minimum = 0.4084 (at node 47)
	maximum = 0.4269 (at node 28)
Accepted packet rate average = 0.419764
	minimum = 0.4033 (at node 14)
	maximum = 0.4366 (at node 63)
Injected flit rate average = 0.419759
	minimum = 0.4084 (at node 47)
	maximum = 0.4269 (at node 28)
Accepted flit rate average= 0.419764
	minimum = 0.4033 (at node 14)
	maximum = 0.4366 (at node 63)
Injected packet length average = 1
Accepted packet length average = 1
Total in-flight flits = 745 (0 measured)
Buffer busy stall rate = 0
Buffer conflict stall rate = 3.125e-05
Buffer full stall rate = 0
Buffer reserved stall rate = 0.273169
Crossbar conflict stall rate = 5.46744
latency change    = 0.163526
throughput change = 0.00348345
latency change    = 0.159598
throughput change = 0.00146101
Warmed up ...Time used is 30000 cycles
DVFS epoch t=30000 total_power=0.721427 headroom=-0.0214274 avg_power=0.73145 domains{0:freq=0.744749,power=0.721427} routers{0:freq=0.744749,power=0.0398591, 1:freq=1,power=0.0503356, 2:freq=0.981748,power=0.0495609, 3:freq=0.820452,power=0.0429223, 4:freq=0.943889,power=0.0480288, 5:freq=0.833537,power=0.0434697, 6:freq=0.820452,power=0.0429744, 7:freq=0.761648,power=0.0405326, 8:freq=0.861645,power=0.0446359, 9:freq=0.924212,power=0.0472581, 10:freq=0.792531,power=0.0417349, 11:freq=0.861645,power=0.0446469, 12:freq=0.924212,power=0.0472688, 13:freq=0.861645,power=0.0446063, 14:freq=0.943889,power=0.0480493, 15:freq=0.883144,power=0.0455438}
HW_REACTIVE_DIFF: epoch=3 max_signal=0.0601563 base_scale=0.814992 headroom=-0.0214274
Class 0:
Packet latency average = 37.4194
	minimum = 6
	maximum = 407
Network latency average = 37.4194
	minimum = 6
	maximum = 407
Slowest packet = 1259172
Flit latency average = 37.4221
	minimum = 6
	maximum = 407
Slowest flit = 1259172
Fragmentation average = 0
	minimum = 0
	maximum = 0
Injected packet rate average = 0.180041
	minimum = 0.1711 (at node 8)
	maximum = 0.1887 (at node 46)
Accepted packet rate average = 0.179828
	minimum = 0.1664 (at node 48)
	maximum = 0.1883 (at node 21)
Injected flit rate average = 0.180041
	minimum = 0.1711 (at node 8)
	maximum = 0.1887 (at node 46)
Accepted flit rate average= 0.179828
	minimum = 0.1664 (at node 48)
	maximum = 0.1883 (at node 21)
Injected packet length average = 1
Accepted packet length average = 1
Total in-flight flits = 468 (468 measured)
Buffer busy stall rate = 0
Buffer conflict stall rate = 0.0027875
Buffer full stall rate = 0
Buffer reserved stall rate = 0.328269
Crossbar conflict stall rate = 3.32108
Class 1:
Packet latency average = 37.6353
	minimum = 6
	maximum = 511
Network latency average = 37.1836
	minimum = 6
	maximum = 511
Slowest packet = 1245652
Flit latency average = 37.1809
	minimum = 6
	maximum = 511
Slowest flit = 1245652
Fragmentation average = 0
	minimum = 0
	maximum = 0
Injected packet rate average = 0.4204
	minimum = 0.4076 (at node 8)
	maximum = 0.4322 (at node 20)
Accepted packet rate average = 0.419884
	minimum = 0.4049 (at node 2)
	maximum = 0.4355 (at node 26)
Injected flit rate average = 0.4204
	minimum = 0.4076 (at node 8)
	maximum = 0.4322 (at node 20)
Accepted flit rate average= 0.419884
	minimum = 0.4049 (at node 2)
	maximum = 0.4355 (at node 26)
Injected packet length average = 1
Accepted packet length average = 1
Total in-flight flits = 1068 (1068 measured)
Buffer busy stall rate = 6.25e-06
Buffer conflict stall rate = 0.0067125
Buffer full stall rate = 0
Buffer reserved stall rate = 0.772613
Crossbar conflict stall rate = 7.60125
latency change    = 0.266619
throughput change = 0.00601269
latency change    = 0.262067
throughput change = 0.000286537
DVFS epoch t=40000 total_power=0.697911 headroom=0.00208877 avg_power=0.723066 domains{0:freq=1,power=0.697911} routers{0:freq=1,power=0.0515836, 1:freq=0.710013,power=0.0392835, 2:freq=0.808215,power=0.0434021, 3:freq=0.910245,power=0.0477031, 4:freq=0.693184,power=0.0385773, 5:freq=0.847528,power=0.0450299, 6:freq=0.842917,power=0.0449252, 7:freq=0.917865,power=0.0481267, 8:freq=0.823779,power=0.0440161, 9:freq=0.753894,power=0.0410905, 10:freq=0.852076,power=0.0453213, 11:freq=0.684194,power=0.0381428, 12:freq=0.766922,power=0.041626, 13:freq=0.813671,power=0.0435927, 14:freq=0.766922,power=0.0416469, 15:freq=0.818804,power=0.0438436}
Class 0:
Packet latency average = 37.1513
	minimum = 6
	maximum = 407
Network latency average = 37.1513
	minimum = 6
	maximum = 407
Slowest packet = 1259172
Flit latency average = 37.153
	minimum = 6
	maximum = 407
Slowest flit = 1259172
Fragmentation average = 0
	minimum = 0
	maximum = 0
Injected packet rate average = 0.179955
	minimum = 0.17365 (at node 6)
	maximum = 0.18525 (at node 3)
Accepted packet rate average = 0.179899
	minimum = 0.17165 (at node 17)
	maximum = 0.1872 (at node 12)
Injected flit rate average = 0.179955
	minimum = 0.17365 (at node 6)
	maximum = 0.18525 (at node 3)
Accepted flit rate average= 0.179899
	minimum = 0.17165 (at node 17)
	maximum = 0.1872 (at node 12)
Injected packet length average = 1
Accepted packet length average = 1
Total in-flight flits = 403 (403 measured)
Buffer busy stall rate = 0
Buffer conflict stall rate = 0.002925
Buffer full stall rate = 0
Buffer reserved stall rate = 0.313362
Crossbar conflict stall rate = 3.28923
Class 1:
Packet latency average = 37.3212
	minimum = 6
	maximum = 511
Network latency average = 36.8724
	minimum = 6
	maximum = 511
Slowest packet = 1245652
Flit latency average = 36.8715
	minimum = 6
	maximum = 511
Slowest flit = 1245652
Fragmentation average = 0
	minimum = 0
	maximum = 0
Injected packet rate average = 0.419574
	minimum = 0.41255 (at node 14)
	maximum = 0.4257 (at node 11)
Accepted packet rate average = 0.419396
	minimum = 0.40405 (at node 40)
	maximum = 0.43235 (at node 10)
Injected flit rate average = 0.419574
	minimum = 0.41255 (at node 14)
	maximum = 0.4257 (at node 11)
Accepted flit rate average= 0.419396
	minimum = 0.40405 (at node 40)
	maximum = 0.43235 (at node 10)
Injected packet length average = 1
Accepted packet length average = 1
Total in-flight flits = 963 (963 measured)
Buffer busy stall rate = 3.125e-06
Buffer conflict stall rate = 0.00725938
Buffer full stall rate = 0
Buffer reserved stall rate = 0.736259
Crossbar conflict stall rate = 7.51189
latency change    = 0.00721652
throughput change = 0.000395187
latency change    = 0.00841603
throughput change = 0.00116425
DVFS epoch t=50000 total_power=0.712812 headroom=-0.0128124 avg_power=0.721015 domains{0:freq=1,power=0.712812} routers{0:freq=1,power=0.0526959, 1:freq=0.710013,power=0.0400989, 2:freq=0.808215,power=0.0443649, 3:freq=0.910245,power=0.0487518, 4:freq=0.693184,power=0.0392656, 5:freq=0.847528,power=0.0460734, 6:freq=0.842917,power=0.0458807, 7:freq=0.917865,power=0.0491162, 8:freq=0.823779,power=0.0450051, 9:freq=0.753894,power=0.0419444, 10:freq=0.852076,power=0.0462424, 11:freq=0.684194,power=0.0388956, 12:freq=0.766922,power=0.0424995, 13:freq=0.813671,power=0.0445921, 14:freq=0.766922,power=0.0425749, 15:freq=0.818804,power=0.0448109}
HW_REACTIVE_DIFF: epoch=5 max_signal=0.107813 base_scale=0.792616 headroom=-0.0128124
Class 0:
Packet latency average = 42.7238
	minimum = 6
	maximum = 1029
Network latency average = 42.7238
	minimum = 6
	maximum = 1029
Slowest packet = 2185752
Flit latency average = 42.7196
	minimum = 6
	maximum = 1029
Slowest flit = 2185752
Fragmentation average = 0
	minimum = 0
	maximum = 0
Injected packet rate average = 0.180341
	minimum = 0.175367 (at node 11)
	maximum = 0.184333 (at node 4)
Accepted packet rate average = 0.180218
	minimum = 0.1737 (at node 17)
	maximum = 0.1859 (at node 9)
Injected flit rate average = 0.180341
	minimum = 0.175367 (at node 11)
	maximum = 0.184333 (at node 4)
Accepted flit rate average= 0.180218
	minimum = 0.1737 (at node 17)
	maximum = 0.1859 (at node 9)
Injected packet length average = 1
Accepted packet length average = 1
Total in-flight flits = 567 (567 measured)
Buffer busy stall rate = 0.00439792
Buffer conflict stall rate = 0.0252146
Buffer full stall rate = 0.00183542
Buffer reserved stall rate = 0.488279
Crossbar conflict stall rate = 3.63747
Class 1:
Packet latency average = 42.9045
	minimum = 6
	maximum = 999
Network latency average = 42.4524
	minimum = 6
	maximum = 998
Slowest packet = 2192189
Flit latency average = 42.4466
	minimum = 6
	maximum = 998
Slowest flit = 2192189
Fragmentation average = 0
	minimum = 0
	maximum = 0
Injected packet rate average = 0.419973
	minimum = 0.414133 (at node 26)
	maximum = 0.427367 (at node 25)
Accepted packet rate average = 0.419656
	minimum = 0.409633 (at node 40)
	maximum = 0.432267 (at node 10)
Injected flit rate average = 0.419973
	minimum = 0.414133 (at node 26)
	maximum = 0.427367 (at node 25)
Accepted flit rate average= 0.419656
	minimum = 0.409633 (at node 40)
	maximum = 0.432267 (at node 10)
Injected packet length average = 1
Accepted packet length average = 1
Total in-flight flits = 1352 (1352 measured)
Buffer busy stall rate = 0.0106146
Buffer conflict stall rate = 0.0580417
Buffer full stall rate = 0.00483958
Buffer reserved stall rate = 1.14198
Crossbar conflict stall rate = 8.33356
latency change    = 0.13043
throughput change = 0.00177013
latency change    = 0.130134
throughput change = 0.000619927
DVFS epoch t=60000 total_power=0.710611 headroom=-0.0106113 avg_power=0.719281 domains{0:freq=0.661528,power=0.710611} routers{0:freq=0.661528,power=0.0387671, 1:freq=0.938398,power=0.0511938, 2:freq=0.799637,power=0.0449793, 3:freq=0.69007,power=0.0400518, 4:freq=0.961153,power=0.0522204, 5:freq=0.684715,power=0.0397849, 6:freq=0.695278,power=0.0402896, 7:freq=0.745379,power=0.0424689, 8:freq=0.745379,power=0.0425096, 9:freq=0.753427,power=0.0428627, 10:freq=0.673509,power=0.039306, 11:freq=1,power=0.053914, 12:freq=0.8409,power=0.0468414, 13:freq=0.825095,power=0.0460942, 14:freq=0.808385,power=0.0452701, 15:freq=0.779775,power=0.0440576}
Class 0:
Packet latency average = 45.5975
	minimum = 6
	maximum = 1029
Network latency average = 45.5975
	minimum = 6
	maximum = 1029
Slowest packet = 2185752
Flit latency average = 45.5923
	minimum = 6
	maximum = 1029
Slowest flit = 2185752
Fragmentation average = 0
	minimum = 0
	maximum = 0
Injected packet rate average = 0.180354
	minimum = 0.176 (at node 53)
	maximum = 0.18405 (at node 2)
Accepted packet rate average = 0.180218
	minimum = 0.1757 (at node 48)
	maximum = 0.185125 (at node 12)
Injected flit rate average = 0.180354
	minimum = 0.176 (at node 53)
	maximum = 0.18405 (at node 2)
Accepted flit rate average= 0.180218
	minimum = 0.1757 (at node 48)
	maximum = 0.185125 (at node 12)
Injected packet length average = 1
Accepted packet length average = 1
Total in-flight flits = 681 (681 measured)
Buffer busy stall rate = 0.00529219
Buffer conflict stall rate = 0.0339469
Buffer full stall rate = 0.003225
Buffer reserved stall rate = 0.598555
Crossbar conflict stall rate = 3.7875
Class 1:
Packet latency average = 45.8234
	minimum = 6
	maximum = 999
Network latency average = 45.3701
	minimum = 6
	maximum = 998
Slowest packet = 2192189
Flit latency average = 45.3638
	minimum = 6
	maximum = 998
Slowest flit = 2192189
Fragmentation average = 0
	minimum = 0
	maximum = 0
Injected packet rate average = 0.419908
	minimum = 0.4135 (at node 8)
	maximum = 0.428575 (at node 25)
Accepted packet rate average = 0.419579
	minimum = 0.410825 (at node 44)
	maximum = 0.43 (at node 10)
Injected flit rate average = 0.419908
	minimum = 0.4135 (at node 8)
	maximum = 0.428575 (at node 25)
Accepted flit rate average= 0.419579
	minimum = 0.410825 (at node 44)
	maximum = 0.43 (at node 10)
Injected packet length average = 1
Accepted packet length average = 1
Total in-flight flits = 1584 (1584 measured)
Buffer busy stall rate = 0.0128172
Buffer conflict stall rate = 0.080175
Buffer full stall rate = 0.00753594
Buffer reserved stall rate = 1.38494
Crossbar conflict stall rate = 8.72198
latency change    = 0.0630241
throughput change = 1.44501e-06
latency change    = 0.0636994
throughput change = 0.000185268
DVFS epoch t=70000 total_power=0.724947 headroom=-0.0249466 avg_power=0.72009 domains{0:freq=0.661528,power=0.724947} routers{0:freq=0.661528,power=0.0395277, 1:freq=0.938398,power=0.0522401, 2:freq=0.799637,power=0.0458826, 3:freq=0.69007,power=0.040798, 4:freq=0.961153,power=0.0532962, 5:freq=0.684715,power=0.0405589, 6:freq=0.695278,power=0.0410473, 7:freq=0.745379,power=0.0433789, 8:freq=0.745379,power=0.0433457, 9:freq=0.753427,power=0.0437061, 10:freq=0.673509,power=0.0400637, 11:freq=1,power=0.0550389, 12:freq=0.8409,power=0.0477616, 13:freq=0.825095,power=0.0470326, 14:freq=0.808385,power=0.0463001, 15:freq=0.779775,power=0.0449683}
HW_REACTIVE_DIFF: epoch=7 max_signal=0.210156 base_scale=0.750245 headroom=-0.0249466
Class 0:
Packet latency average = 103.011
	minimum = 6
	maximum = 5547
Network latency average = 88.0594
	minimum = 6
	maximum = 5547
Slowest packet = 2815004
Flit latency average = 88.0304
	minimum = 6
	maximum = 5547
Slowest flit = 2815004
Fragmentation average = 0
	minimum = 0
	maximum = 0
Injected packet rate average = 0.179323
	minimum = 0.1712 (at node 59)
	maximum = 0.1838 (at node 18)
Accepted packet rate average = 0.177908
	minimum = 0.174 (at node 48)
	maximum = 0.18286 (at node 12)
Injected flit rate average = 0.179323
	minimum = 0.1712 (at node 59)
	maximum = 0.1838 (at node 18)
Accepted flit rate average= 0.177908
	minimum = 0.174 (at node 48)
	maximum = 0.18286 (at node 12)
Injected packet length average = 1
Accepted packet length average = 1
Total in-flight flits = 4884 (4884 measured)
Buffer busy stall rate = 1.15032
Buffer conflict stall rate = 0.944625
Buffer full stall rate = 0.23052
Buffer reserved stall rate = 0.999714
Crossbar conflict stall rate = 3.95958
Class 1:
Packet latency average = 97.3265
	minimum = 6
	maximum = 6696
Network latency average = 66.9914
	minimum = 6
	maximum = 5411
Slowest packet = 2822244
Flit latency average = 66.9734
	minimum = 6
	maximum = 5411
Slowest flit = 2822244
Fragmentation average = 0
	minimum = 0
	maximum = 0
Injected packet rate average = 0.399668
	minimum = 0.3641 (at node 61)
	maximum = 0.42286 (at node 10)
Accepted packet rate average = 0.398534
	minimum = 0.39214 (at node 42)
	maximum = 0.405 (at node 10)
Injected flit rate average = 0.399668
	minimum = 0.3641 (at node 61)
	maximum = 0.42286 (at node 10)
Accepted flit rate average= 0.398534
	minimum = 0.39214 (at node 42)
	maximum = 0.405 (at node 10)
Injected packet length average = 1
Accepted packet length average = 1
Total in-flight flits = 4403 (4403 measured)
Buffer busy stall rate = 0.97025
Buffer conflict stall rate = 1.09658
Buffer full stall rate = 0.249175
Buffer reserved stall rate = 1.98247
Crossbar conflict stall rate = 8.84375
latency change    = 0.557354
throughput change = 0.0129851
latency change    = 0.529179
throughput change = 0.0528038
DVFS epoch t=80000 total_power=0.694147 headroom=0.00585349 avg_power=0.716847 domains{0:freq=1,power=0.694147} routers{0:freq=1,power=0.0551901, 1:freq=0.625922,power=0.0375491, 2:freq=0.700902,power=0.0405662, 3:freq=0.90511,power=0.0503185, 4:freq=0.610692,power=0.0360578, 5:freq=0.877296,power=0.0484059, 6:freq=0.866243,power=0.0476962, 7:freq=0.687927,power=0.0401231, 8:freq=0.697282,power=0.040403, 9:freq=0.689835,power=0.0398934, 10:freq=0.840308,power=0.0468927, 11:freq=0.603977,power=0.0361557, 12:freq=0.874558,power=0.0486545, 13:freq=0.707954,power=0.0400383, 14:freq=0.768857,power=0.0428444, 15:freq=0.759784,power=0.0433576}
Class 0:
Packet latency average = 191.391
	minimum = 6
	maximum = 9716
Network latency average = 139.559
	minimum = 6
	maximum = 9347
Slowest packet = 3023749
Flit latency average = 139.51
	minimum = 6
	maximum = 9347
Slowest flit = 3019081
Fragmentation average = 0
	minimum = 0
	maximum = 0
Injected packet rate average = 0.177972
	minimum = 0.157733 (at node 61)
	maximum = 0.18345 (at node 18)
Accepted packet rate average = 0.176815
	minimum = 0.1734 (at node 48)
	maximum = 0.180267 (at node 22)
Injected flit rate average = 0.177972
	minimum = 0.157733 (at node 61)
	maximum = 0.18345 (at node 18)
Accepted flit rate average= 0.176815
	minimum = 0.1734 (at node 48)
	maximum = 0.180267 (at node 22)
Injected packet length average = 1
Accepted packet length average = 1
Total in-flight flits = 4791 (4791 measured)
Buffer busy stall rate = 2.59025
Buffer conflict stall rate = 2.06744
Buffer full stall rate = 0.532944
Buffer reserved stall rate = 1.18786
Crossbar conflict stall rate = 4.08129
Class 1:
Packet latency average = 359.088
	minimum = 6
	maximum = 16350
Network latency average = 88.0601
	minimum = 6
	maximum = 8965
Slowest packet = 2822244
Flit latency average = 88.0333
	minimum = 6
	maximum = 8965
Slowest flit = 3025642
Fragmentation average = 0
	minimum = 0
	maximum = 0
Injected packet rate average = 0.375354
	minimum = 0.303417 (at node 61)
	maximum = 0.423317 (at node 10)
Accepted packet rate average = 0.374507
	minimum = 0.368167 (at node 42)
	maximum = 0.381233 (at node 24)
Injected flit rate average = 0.375354
	minimum = 0.303417 (at node 61)
	maximum = 0.423317 (at node 10)
Accepted flit rate average= 0.374507
	minimum = 0.368167 (at node 42)
	maximum = 0.381233 (at node 24)
Injected packet length average = 1
Accepted packet length average = 1
Total in-flight flits = 4029 (4029 measured)
Buffer busy stall rate = 1.69387
Buffer conflict stall rate = 1.92493
Buffer full stall rate = 0.514603
Buffer reserved stall rate = 2.0615
Crossbar conflict stall rate = 8.69633
latency change    = 0.461775
throughput change = 0.00618143
latency change    = 0.728962
throughput change = 0.0641573
DVFS epoch t=90000 total_power=0.693991 headroom=0.00600902 avg_power=0.714308 domains{0:freq=1,power=0.693991} routers{0:freq=1,power=0.0552474, 1:freq=0.625922,power=0.0374125, 2:freq=0.700902,power=0.0399091, 3:freq=0.90511,power=0.0494079, 4:freq=0.610692,power=0.036564, 5:freq=0.877296,power=0.0490331, 6:freq=0.866243,power=0.0477804, 7:freq=0.687927,power=0.0388773, 8:freq=0.697282,power=0.0400599, 9:freq=0.689835,power=0.0391469, 10:freq=0.840308,power=0.0460355, 11:freq=0.603977,power=0.0361893, 12:freq=0.874558,power=0.0498422, 13:freq=0.707954,power=0.0409727, 14:freq=0.768857,power=0.0430873, 15:freq=0.759784,power=0.0444254}
HW_REACTIVE_DIFF: epoch=9 max_signal=0.592187 base_scale=1 headroom=0.00600902
Class 0:
Packet latency average = 265.097
	minimum = 6
	maximum = 14645
Network latency average = 157.387
	minimum = 6
	maximum = 10543
Slowest packet = 3023749
Flit latency average = 157.337
	minimum = 6
	maximum = 10543
Slowest flit = 3243344
Fragmentation average = 0
	minimum = 0
	maximum = 0
Injected packet rate average = 0.179243
	minimum = 0.156543 (at node 31)
	maximum = 0.183229 (at node 18)
Accepted packet rate average = 0.178635
	minimum = 0.175357 (at node 62)
	maximum = 0.1819 (at node 22)
Injected flit rate average = 0.179243
	minimum = 0.156543 (at node 31)
	maximum = 0.183229 (at node 18)
Accepted flit rate average= 0.178635
	minimum = 0.175357 (at node 62)
	maximum = 0.1819 (at node 22)
Injected packet length average = 1
Accepted packet length average = 1
Total in-flight flits = 3073 (3073 measured)
Buffer busy stall rate = 3.27166
Buffer conflict stall rate = 2.67097
Buffer full stall rate = 0.692446
Buffer reserved stall rate = 1.29939
Crossbar conflict stall rate = 4.30134
Class 1:
Packet latency average = 1079.68
	minimum = 6
	maximum = 25992
Network latency average = 98.8658
	minimum = 6
	maximum = 9486
Slowest packet = 2822244
Flit latency average = 98.8385
	minimum = 6
	maximum = 9486
Slowest flit = 3026007
Fragmentation average = 0
	minimum = 0
	maximum = 0
Injected packet rate average = 0.382364
	minimum = 0.261786 (at node 29)
	maximum = 0.4256 (at node 25)
Accepted packet rate average = 0.381637
	minimum = 0.375557 (at node 59)
	maximum = 0.387543 (at node 24)
Injected flit rate average = 0.382364
	minimum = 0.261786 (at node 29)
	maximum = 0.4256 (at node 25)
Accepted flit rate average= 0.381637
	minimum = 0.375557 (at node 59)
	maximum = 0.387543 (at node 24)
Injected packet length average = 1
Accepted packet length average = 1
Total in-flight flits = 4022 (4022 measured)
Buffer busy stall rate = 2.36884
Buffer conflict stall rate = 2.70663
Buffer full stall rate = 0.732926
Buffer reserved stall rate = 2.27902
Crossbar conflict stall rate = 9.57674
latency change    = 0.278036
throughput change = 0.0101883
latency change    = 0.667414
throughput change = 0.0186822
DVFS epoch t=100000 total_power=0.924005 headroom=-0.224005 avg_power=0.735278 domains{0:freq=1,power=0.924005} routers{0:freq=1,power=0.05943, 1:freq=1,power=0.0587966, 2:freq=0.986495,power=0.0594309, 3:freq=0.997189,power=0.0585797, 4:freq=1,power=0.0593377, 5:freq=0.928435,power=0.055777, 6:freq=1,power=0.0579047, 7:freq=1,power=0.0575066, 8:freq=0.944699,power=0.0569547, 9:freq=0.981606,power=0.0587261, 10:freq=1,power=0.0581001, 11:freq=1,power=0.0587133, 12:freq=0.821889,power=0.0499631, 13:freq=0.986495,power=0.0586424, 14:freq=1,power=0.0585997, 15:freq=1,power=0.0575425}
Class 0:
Packet latency average = 298.091
	minimum = 6
	maximum = 14645
Network latency average = 164.085
	minimum = 6
	maximum = 10543
Slowest packet = 3023749
Flit latency average = 164.04
	minimum = 6
	maximum = 10543
Slowest flit = 3243344
Fragmentation average = 0
	minimum = 0
	maximum = 0
Injected packet rate average = 0.179626
	minimum = 0.166362 (at node 31)
	maximum = 0.184075 (at node 5)
Accepted packet rate average = 0.179351
	minimum = 0.17635 (at node 48)
	maximum = 0.1834 (at node 22)
Injected flit rate average = 0.179626
	minimum = 0.166362 (at node 31)
	maximum = 0.184075 (at node 5)
Accepted flit rate average= 0.179351
	minimum = 0.17635 (at node 48)
	maximum = 0.1834 (at node 22)
Injected packet length average = 1
Accepted packet length average = 1
Total in-flight flits = 1747 (1747 measured)
Buffer busy stall rate = 3.5822
Buffer conflict stall rate = 2.96363
Buffer full stall rate = 0.775378
Buffer reserved stall rate = 1.35554
Crossbar conflict stall rate = 4.35809
Class 1:
Packet latency average = 1673.06
	minimum = 6
	maximum = 32802
Network latency average = 103.713
	minimum = 6
	maximum = 9486
Slowest packet = 2822244
Flit latency average = 103.688
	minimum = 6
	maximum = 9486
Slowest flit = 3026007
Fragmentation average = 0
	minimum = 0
	maximum = 0
Injected packet rate average = 0.388776
	minimum = 0.252 (at node 45)
	maximum = 0.424737 (at node 25)
Accepted packet rate average = 0.388267
	minimum = 0.38395 (at node 42)
	maximum = 0.393912 (at node 53)
Injected flit rate average = 0.388776
	minimum = 0.252 (at node 45)
	maximum = 0.424737 (at node 25)
Accepted flit rate average= 0.388267
	minimum = 0.38395 (at node 42)
	maximum = 0.393912 (at node 53)
Injected packet length average = 1
Accepted packet length average = 1
Total in-flight flits = 3353 (3353 measured)
Buffer busy stall rate = 2.68491
Buffer conflict stall rate = 3.15535
Buffer full stall rate = 0.846719
Buffer reserved stall rate = 2.43344
Crossbar conflict stall rate = 10.0306
latency change    = 0.110684
throughput change = 0.00399412
latency change    = 0.354666
throughput change = 0.0170773
DVFS epoch t=110000 total_power=0.943508 headroom=-0.243508 avg_power=0.754208 domains{0:freq=1,power=0.943508} routers{0:freq=1,power=0.0602145, 1:freq=1,power=0.0604862, 2:freq=0.986495,power=0.0602043, 3:freq=0.997189,power=0.0602982, 4:freq=1,power=0.0600221, 5:freq=0.928435,power=0.0569326, 6:freq=1,power=0.0609205, 7:freq=1,power=0.0593197, 8:freq=0.944699,power=0.0575355, 9:freq=0.981606,power=0.0597449, 10:freq=1,power=0.059905, 11:freq=1,power=0.0589162, 12:freq=0.821889,power=0.0508263, 13:freq=0.986495,power=0.0597716, 14:freq=1,power=0.0600565, 15:freq=1,power=0.0583533}
HW_REACTIVE_DIFF: epoch=11 max_signal=0.405469 base_scale=0.6 headroom=-0.243508
Class 0:
Packet latency average = 330.047
	minimum = 6
	maximum = 14645
Network latency average = 189.652
	minimum = 6
	maximum = 10543
Slowest packet = 3023749
Flit latency average = 189.603
	minimum = 6
	maximum = 10543
Slowest flit = 3243344
Fragmentation average = 0
	minimum = 0
	maximum = 0
Injected packet rate average = 0.178796
	minimum = 0.160711 (at node 31)
	maximum = 0.183578 (at node 5)
Accepted packet rate average = 0.177912
	minimum = 0.175211 (at node 36)
	maximum = 0.181289 (at node 22)
Injected flit rate average = 0.178796
	minimum = 0.160711 (at node 31)
	maximum = 0.183578 (at node 5)
Accepted flit rate average= 0.177912
	minimum = 0.175211 (at node 36)
	maximum = 0.181289 (at node 22)
Injected packet length average = 1
Accepted packet length average = 1
Total in-flight flits = 5446 (5446 measured)
Buffer busy stall rate = 4.14893
Buffer conflict stall rate = 3.34108
Buffer full stall rate = 0.941603
Buffer reserved stall rate = 1.54747
Crossbar conflict stall rate = 4.47939
Class 1:
Packet latency average = 1845.47
	minimum = 6
	maximum = 36247
Network latency average = 119.172
	minimum = 6
	maximum = 9486
Slowest packet = 2822244
Flit latency average = 119.144
	minimum = 6
	maximum = 9486
Slowest flit = 3026007
Fragmentation average = 0
	minimum = 0
	maximum = 0
Injected packet rate average = 0.374122
	minimum = 0.231378 (at node 45)
	maximum = 0.420644 (at node 33)
Accepted packet rate average = 0.373576
	minimum = 0.368656 (at node 42)
	maximum = 0.378778 (at node 53)
Injected flit rate average = 0.374122
	minimum = 0.231378 (at node 45)
	maximum = 0.420644 (at node 33)
Accepted flit rate average= 0.373576
	minimum = 0.368656 (at node 42)
	maximum = 0.378778 (at node 53)
Injected packet length average = 1
Accepted packet length average = 1
Total in-flight flits = 3929 (3929 measured)
Buffer busy stall rate = 2.9549
Buffer conflict stall rate = 3.46863
Buffer full stall rate = 0.990075
Buffer reserved stall rate = 2.65319
Crossbar conflict stall rate = 9.96907
latency change    = 0.0968216
throughput change = 0.00808837
latency change    = 0.0934197
throughput change = 0.0393277
DVFS epoch t=120000 total_power=0.707497 headroom=-0.0074966 avg_power=0.750315 domains{0:freq=0.536315,power=0.707497} routers{0:freq=0.536315,power=0.0344887, 1:freq=0.553326,power=0.03494, 2:freq=0.553711,power=0.03557, 3:freq=0.64066,power=0.0390644, 4:freq=0.533357,power=0.034367, 5:freq=0.8386,power=0.049999, 6:freq=0.685507,power=0.0416523, 7:freq=1,power=0.0575722, 8:freq=0.760402,power=0.0463357, 9:freq=0.579407,power=0.0370421, 10:freq=0.82171,power=0.0489876, 11:freq=0.886451,power=0.0518311, 12:freq=0.911612,power=0.0542771, 13:freq=0.575687,power=0.0366886, 14:freq=0.778287,power=0.047004, 15:freq=0.996339,power=0.0576768}
Class 0:
Packet latency average = 396.85
	minimum = 6
	maximum = 18186
Network latency average = 220.055
	minimum = 6
	maximum = 10543
Slowest packet = 3023749
Flit latency average = 220.002
	minimum = 6
	maximum = 10543
Slowest flit = 3243344
Fragmentation average = 0
	minimum = 0
	maximum = 0
Injected packet rate average = 0.17779
	minimum = 0.15212 (at node 31)
	maximum = 0.18326 (at node 5)
Accepted packet rate average = 0.177025
	minimum = 0.17424 (at node 48)
	maximum = 0.18047 (at node 22)
Injected flit rate average = 0.17779
	minimum = 0.15212 (at node 31)
	maximum = 0.18326 (at node 5)
Accepted flit rate average= 0.177025
	minimum = 0.17424 (at node 48)
	maximum = 0.18047 (at node 22)
Injected packet length average = 1
Accepted packet length average = 1
Total in-flight flits = 5246 (5246 measured)
Buffer busy stall rate = 4.97659
Buffer conflict stall rate = 3.78561
Buffer full stall rate = 1.14676
Buffer reserved stall rate = 1.60951
Crossbar conflict stall rate = 4.49719
Class 1:
Packet latency average = 2011.47
	minimum = 6
	maximum = 37097
Network latency average = 130.126
	minimum = 6
	maximum = 9486
Slowest packet = 2822244
Flit latency average = 130.096
	minimum = 6
	maximum = 9486
Slowest flit = 3026007
Fragmentation average = 0
	minimum = 0
	maximum = 0
Injected packet rate average = 0.356623
	minimum = 0.20824 (at node 45)
	maximum = 0.4201 (at node 32)
Accepted packet rate average = 0.356046
	minimum = 0.35127 (at node 42)
	maximum = 0.361 (at node 53)
Injected flit rate average = 0.356623
	minimum = 0.20824 (at node 45)
	maximum = 0.4201 (at node 32)
Accepted flit rate average= 0.356046
	minimum = 0.35127 (at node 42)
	maximum = 0.361 (at node 53)
Injected packet length average = 1
Accepted packet length average = 1
Total in-flight flits = 4474 (4474 measured)
Buffer busy stall rate = 3.11921
Buffer conflict stall rate = 3.58971
Buffer full stall rate = 1.09185
Buffer reserved stall rate = 2.57899
Crossbar conflict stall rate = 9.62947
latency change    = 0.168334
throughput change = 0.00500879
latency change    = 0.0825308
throughput change = 0.049235
DVFS epoch t=130000 total_power=0.707451 headroom=-0.00745128 avg_power=0.747018 domains{0:freq=0.536315,power=0.707451} routers{0:freq=0.536315,power=0.0345447, 1:freq=0.553326,power=0.0347611, 2:freq=0.553711,power=0.0355106, 3:freq=0.64066,power=0.0388438, 4:freq=0.533357,power=0.0344234, 5:freq=0.8386,power=0.0501908, 6:freq=0.685507,power=0.0415522, 7:freq=1,power=0.057722, 8:freq=0.760402,power=0.0462829, 9:freq=0.579407,power=0.0371382, 10:freq=0.82171,power=0.0489173, 11:freq=0.886451,power=0.0518438, 12:freq=0.911612,power=0.0543722, 13:freq=0.575687,power=0.0368667, 14:freq=0.778287,power=0.0467362, 15:freq=0.996339,power=0.0577454}
HW_REACTIVE_DIFF: epoch=13 max_signal=0.548438 base_scale=0.59042 headroom=-0.00745128
Class 0:
Packet latency average = 479.947
	minimum = 6
	maximum = 18966
Network latency average = 239.609
	minimum = 6
	maximum = 10543
Slowest packet = 3023749
Flit latency average = 239.555
	minimum = 6
	maximum = 10543
Slowest flit = 3243344
Fragmentation average = 0
	minimum = 0
	maximum = 0
Injected packet rate average = 0.177863
	minimum = 0.152809 (at node 31)
	maximum = 0.182564 (at node 5)
Accepted packet rate average = 0.177138
	minimum = 0.174164 (at node 17)
	maximum = 0.180145 (at node 22)
Injected flit rate average = 0.177863
	minimum = 0.152809 (at node 31)
	maximum = 0.182564 (at node 5)
Accepted flit rate average= 0.177138
	minimum = 0.174164 (at node 17)
	maximum = 0.180145 (at node 22)
Injected packet length average = 1
Accepted packet length average = 1
Total in-flight flits = 5456 (5456 measured)
Buffer busy stall rate = 5.20545
Buffer conflict stall rate = 4.07743
Buffer full stall rate = 1.18613
Buffer reserved stall rate = 1.71177
Crossbar conflict stall rate = 4.72958
Class 1:
Packet latency average = 2669.57
	minimum = 6
	maximum = 54363
Network latency average = 142.408
	minimum = 6
	maximum = 9486
Slowest packet = 2822244
Flit latency average = 142.376
	minimum = 6
	maximum = 9486
Slowest flit = 3026007
Fragmentation average = 0
	minimum = 0
	maximum = 0
Injected packet rate average = 0.346165
	minimum = 0.1918 (at node 31)
	maximum = 0.415727 (at node 32)
Accepted packet rate average = 0.345659
	minimum = 0.341582 (at node 42)
	maximum = 0.350218 (at node 53)
Injected flit rate average = 0.346165
	minimum = 0.1918 (at node 31)
	maximum = 0.415727 (at node 32)
Accepted flit rate average= 0.345659
	minimum = 0.341582 (at node 42)
	maximum = 0.350218 (at node 53)
Injected packet length average = 1
Accepted packet length average = 1
Total in-flight flits = 4356 (4356 measured)
Buffer busy stall rate = 3.1991
Buffer conflict stall rate = 3.75002
Buffer full stall rate = 1.132
Buffer reserved stall rate = 2.66562
Crossbar conflict stall rate = 9.72591
latency change    = 0.173136
throughput change = 0.000637262
latency change    = 0.246517
throughput change = 0.0300502
DVFS epoch t=140000 total_power=0.684328 headroom=0.0156719 avg_power=0.74254 domains{0:freq=0.576839,power=0.684328} routers{0:freq=0.576839,power=0.0380517, 1:freq=0.589025,power=0.0388924, 2:freq=0.724202,power=0.0455619, 3:freq=0.588036,power=0.0375787, 4:freq=0.989891,power=0.0602663, 5:freq=0.587036,power=0.0377995, 6:freq=0.581659,power=0.0383896, 7:freq=0.590091,power=0.0377354, 8:freq=0.585747,power=0.0384196, 9:freq=1,power=0.0605046, 10:freq=0.588756,power=0.0387937, 11:freq=0.588126,power=0.0375057, 12:freq=0.581561,power=0.0382198, 13:freq=0.979745,power=0.0596216, 14:freq=0.587764,power=0.0387079, 15:freq=0.598121,power=0.0382798}
Class 0:
Packet latency average = 546.55
	minimum = 6
	maximum = 26305
Network latency average = 259.466
	minimum = 6
	maximum = 13395
Slowest packet = 3023749
Flit latency average = 259.412
	minimum = 6
	maximum = 13395
Slowest flit = 4657419
Fragmentation average = 0
	minimum = 0
	maximum = 0
Injected packet rate average = 0.176918
	minimum = 0.1474 (at node 31)
	maximum = 0.182567 (at node 5)
Accepted packet rate average = 0.176278
	minimum = 0.173517 (at node 48)
	maximum = 0.178975 (at node 16)
Injected flit rate average = 0.176918
	minimum = 0.1474 (at node 31)
	maximum = 0.182567 (at node 5)
Accepted flit rate average= 0.176278
	minimum = 0.173517 (at node 48)
	maximum = 0.178975 (at node 16)
Injected packet length average = 1
Accepted packet length average = 1
Total in-flight flits = 5270 (5270 measured)
Buffer busy stall rate = 5.57997
Buffer conflict stall rate = 4.36936
Buffer full stall rate = 1.24798
Buffer reserved stall rate = 1.73828
Crossbar conflict stall rate = 4.78172
Class 1:
Packet latency average = 3366.6
	minimum = 6
	maximum = 56173
Network latency average = 151.51
	minimum = 6
	maximum = 9486
Slowest packet = 2822244
Flit latency average = 151.477
	minimum = 6
	maximum = 9486
Slowest flit = 3026007
Fragmentation average = 0
	minimum = 0
	maximum = 0
Injected packet rate average = 0.335319
	minimum = 0.175817 (at node 31)
	maximum = 0.418892 (at node 16)
Accepted packet rate average = 0.33484
	minimum = 0.330883 (at node 42)
	maximum = 0.339367 (at node 53)
Injected flit rate average = 0.335319
	minimum = 0.175817 (at node 31)
	maximum = 0.418892 (at node 16)
Accepted flit rate average= 0.33484
	minimum = 0.330883 (at node 42)
	maximum = 0.339367 (at node 53)
Injected packet length average = 1
Accepted packet length average = 1
Total in-flight flits = 4468 (4468 measured)
Buffer busy stall rate = 3.27579
Buffer conflict stall rate = 3.84453
Buffer full stall rate = 1.16386
Buffer reserved stall rate = 2.61257
Crossbar conflict stall rate = 9.59982
latency change    = 0.121862
throughput change = 0.00488217
latency change    = 0.207044
throughput change = 0.0323104
Draining all recorded packets ...
DVFS epoch t=150000 total_power=0.687841 headroom=0.0121588 avg_power=0.738893 domains{0:freq=0.576839,power=0.687841} routers{0:freq=0.576839,power=0.0383427, 1:freq=0.589025,power=0.0392619, 2:freq=0.724202,power=0.0456093, 3:freq=0.588036,power=0.0376756, 4:freq=0.989891,power=0.0611065, 5:freq=0.587036,power=0.038114, 6:freq=0.581659,power=0.0388608, 7:freq=0.590091,power=0.03774, 8:freq=0.585747,power=0.0385068, 9:freq=1,power=0.0607301, 10:freq=0.588756,power=0.0391849, 11:freq=0.588126,power=0.0375406, 12:freq=0.581561,power=0.0382492, 13:freq=0.979745,power=0.0598492, 14:freq=0.587764,power=0.0390229, 15:freq=0.598121,power=0.0380468}
HW_REACTIVE_DIFF: epoch=15 max_signal=0.565625 base_scale=1 headroom=0.0121588
Class 0:
Remaining flits: 4648585 4648742 4648823 4649546 4651748 4652290 4652518 4654600 4656531 4656803 [...] (3812 flits)
Measured flits: 4648585 4648742 4648823 4649546 4651748 4652290 4652518 4654600 4656531 4656803 [...] (1862 flits)
Class 1:
Remaining flits: 3022112 3374349 4142867 4152813 4153243 4161507 4163190 4275838 4637174 4647788 [...] (5631 flits)
Measured flits: 3022112 3374349 4142867 4152813 4153243 4161507 4163190 4275838 4637174 4647788 [...] (5585 flits)
Class 0:
Remaining flits: 4648585 4648742 4648823 4649546 4651748 4652290 4652518 4654600 4656531 4656803 [...] (3889 flits)
Measured flits: 4648585 4648742 4648823 4649546 4651748 4652290 4652518 4654600 4656531 4656803 [...] (1765 flits)
Class 1:
Remaining flits: 3022112 3374349 4142867 4152813 4153243 4161507 4163190 4275838 4637174 4647788 [...] (5658 flits)
Measured flits: 3022112 3374349 4142867 4152813 4153243 4161507 4163190 4275838 4637174 4647788 [...] (5580 flits)
Class 0:
Remaining flits: 4648585 4648742 4648823 4649546 4651748 4652290 4652518 4654600 4656531 4656803 [...] (3966 flits)
Measured flits: 4648585 4648742 4648823 4649546 4651748 4652290 4652518 4654600 4656531 4656803 [...] (1719 flits)
Class 1:
Remaining flits: 3022112 3374349 4142867 4152813 4153243 4161507 4163190 4275838 4637174 4647788 [...] (5732 flits)
Measured flits: 3022112 3374349 4142867 4152813 4153243 4161507 4163190 4275838 4637174 4647788 [...] (5234 flits)
Class 0:
Remaining flits: 4648585 4648742 4648823 4649546 4651748 4652290 4652518 4654600 4656531 4656803 [...] (4050 flits)
Measured flits: 4648585 4648742 4648823 4649546 4651748 4652290 4652518 4654600 4656531 4656803 [...] (1386 flits)
Class 1:
Remaining flits: 3022112 3374349 4142867 4152813 4153243 4161507 4163190 4275838 4637174 4647788 [...] (5527 flits)
Measured flits: 3022112 3374349 4142867 4152813 4153243 4161507 4163190 4275838 4637174 4647788 [...] (4657 flits)
Class 0:
Remaining flits: 4870183 4871062 4871659 4871757 4873766 4911259 4924337 4924687 4924757 4924842 [...] (4185 flits)
Measured flits: 4870183 4871062 4871659 4871757 4873766 4911259 4924337 4924687 4924757 4924842 [...] (1163 flits)
Class 1:
Remaining flits: 3022112 3374349 4142867 4152813 4153243 4161507 4163190 4275838 4637174 4647788 [...] (5377 flits)
Measured flits: 3022112 3374349 4142867 4152813 4153243 4161507 4163190 4275838 4637174 4647788 [...] (4089 flits)
Class 0:
Remaining flits: 4938795 4983987 5022364 5024033 5057446 5090314 5099695 5099979 5118411 5118496 [...] (3929 flits)
Measured flits: 4938795 4983987 5022364 5024033 5057446 5090314 5099695 5099979 5118411 5118496 [...] (1101 flits)
Class 1:
Remaining flits: 3022112 3374349 4142867 4152813 4153243 4161507 4163190 4275838 4637174 4647788 [...] (5249 flits)
Measured flits: 3022112 3374349 4142867 4152813 4153243 4161507 4163190 4275838 4637174 4647788 [...] (3934 flits)
Class 0:
Remaining flits: 5118496 5118584 5118667 5118747 5118833 5118919 5119002 5122537 5124184 5124616 [...] (3885 flits)
Measured flits: 5118496 5118584 5118667 5118747 5118833 5118919 5119002 5122537 5124184 5124616 [...] (917 flits)
Class 1:
Remaining flits: 3022112 3374349 4142867 4152813 4153243 4161507 4163190 4275838 4637174 4647788 [...] (5463 flits)
Measured flits: 3022112 3374349 4142867 4152813 4153243 4161507 4163190 4275838 4637174 4647788 [...] (3677 flits)
Class 0:
Remaining flits: 5118496 5118584 5118667 5118747 5118833 5118919 5119002 5122537 5124184 5124616 [...] (3847 flits)
Measured flits: 5118496 5118584 5118667 5118747 5118833 5118919 5119002 5122537 5124184 5124616 [...] (630 flits)
Class 1:
Remaining flits: 3022112 3374349 4142867 4152813 4153243 4161507 4163190 4275838 4637174 4647788 [...] (5214 flits)
Measured flits: 3022112 3374349 4142867 4152813 4153243 4161507 4163190 4275838 4637174 4647788 [...] (3726 flits)
Class 0:
Remaining flits: 5118496 5118584 5118667 5118747 5118833 5118919 5119002 5122537 5124184 5124616 [...] (3658 flits)
Measured flits: 5118496 5118584 5118667 5118747 5118833 5118919 5119002 5122537 5124184 5124616 [...] (603 flits)
Class 1:
Remaining flits: 3022112 3374349 4142867 4152813 4153243 4161507 4163190 4275838 4637174 4647788 [...] (5386 flits)
Measured flits: 3022112 3374349 4142867 4152813 4153243 4161507 4163190 4275838 4637174 4647788 [...] (3663 flits)
Class 0:
Remaining flits: 5118496 5118584 5118667 5118747 5118833 5118919 5119002 5122537 5124184 5124616 [...] (3944 flits)
Measured flits: 5118496 5118584 5118667 5118747 5118833 5118919 5119002 5122537 5124184 5124616 [...] (601 flits)
Class 1:
Remaining flits: 3022112 3374349 4142867 4152813 4153243 4161507 4163190 4275838 4647788 5187901 [...] (4983 flits)
Measured flits: 3022112 3374349 4142867 4152813 4153243 4161507 4163190 4275838 4647788 5187901 [...] (2771 flits)
DVFS epoch t=160000 total_power=1.03749 headroom=-0.337487 avg_power=0.757555 domains{0:freq=0.899602,power=1.03749} routers{0:freq=0.899602,power=0.0612817, 1:freq=1,power=0.0670613, 2:freq=0.964347,power=0.0637546, 3:freq=1,power=0.0648045, 4:freq=0.948104,power=0.0634767, 5:freq=1,power=0.0659979, 6:freq=1,power=0.0650094, 7:freq=0.997164,power=0.0642096, 8:freq=0.970484,power=0.0651253, 9:freq=0.995237,power=0.0656823, 10:freq=1,power=0.0675642, 11:freq=0.994271,power=0.0646788, 12:freq=0.970992,power=0.0646099, 13:freq=0.965889,power=0.0632392, 14:freq=1,power=0.067004, 15:freq=0.987453,power=0.0639874}
Class 0:
Remaining flits: 5276060 5318875 5319243 5319323 5326399 5326498 5326728 5326800 5335300 5335457 [...] (3447 flits)
Measured flits: 5276060 5318875 5319243 5319323 5326399 5326498 5326728 5326800 5335300 5335457 [...] (583 flits)
Class 1:
Remaining flits: 3022112 3374349 4142867 4153243 4161507 4163190 4275838 4647788 5187901 5369966 [...] (5519 flits)
Measured flits: 3022112 3374349 4142867 4153243 4161507 4163190 4275838 4647788 5187901 5369966 [...] (3224 flits)
Class 0:
Remaining flits: 5439164 5442814 5443303 5443549 5443589 5443711 5443788 5444081 5444212 5444341 [...] (3453 flits)
Measured flits: 5458365 5458711 5458825 5459041 5462363 5462437 5462511 5463248 5463369 5468755 [...] (597 flits)
Class 1:
Remaining flits: 3022112 3374349 4142867 4153243 4161507 4163190 4275838 4647788 5187901 5448346 [...] (4664 flits)
Measured flits: 3022112 3374349 4142867 4153243 4161507 4163190 4275838 4647788 5187901 5448346 [...] (2697 flits)
Class 0:
Remaining flits: 5470158 5474911 5475042 5475102 5475404 5475606 5475694 5476305 5481091 5481469 [...] (3830 flits)
Measured flits: 5470158 5474911 5475042 5475102 5475404 5475606 5475694 5476305 5481091 5481469 [...] (538 flits)
Class 1:
Remaining flits: 3022112 3374349 4142867 4153243 4161507 4163190 4275838 4647788 5187901 5501682 [...] (4084 flits)
Measured flits: 3022112 3374349 4142867 4153243 4161507 4163190 4275838 4647788 5187901 5501682 [...] (1996 flits)
Class 0:
Remaining flits: 5482860 5501492 5501954 5502781 5503015 5506052 5506200 5506660 5507099 5508361 [...] (3758 flits)
Measured flits: 5482860 5503015 5526871 5526943 5526977 5527089 5527125 5527282 5527326 5527365 [...] (549 flits)
Class 1:
Remaining flits: 3022112 3374349 4142867 4153243 4161507 4163190 4275838 4647788 5187901 5501682 [...] (4530 flits)
Measured flits: 3022112 3374349 4142867 4153243 4161507 4163190 4275838 4647788 5187901 5501682 [...] (2317 flits)
Average latency for class 1 exceeded 5000 cycles. Aborting simulation.
Simulation unstable, ending ...
Total run time 171.393
1.85573e-13
1.01182e-14
8.2655e-14
1.09233e-13
1.89983e-13
5.84568e-13
3.37458e-13
1.11201e-12
8.52002e-14
1.49959e-12
4.63932e-14
1.01182e-14
2.06637e-14
1.56046e-14
1.89983e-13
8.35097e-14
8.43644e-14
3.57857e-13
2.13e-14
4.50637e-13
2.31966e-14
1.01182e-14
3.3062e-13
4.83744e-13
1.89983e-13
2.5888e-12
1.34983e-12
4.12861e-12
3.40801e-13
4.97629e-12
2.8975e-11
4.62959e-11
1.85573e-13
1.01182e-14
8.2655e-14
1.09233e-13
1.89983e-13
5.84568e-13
3.37458e-13
1.11201e-12
8.52002e-14
1.49959e-12
4.63932e-14
1.01182e-14
2.06637e-14
1.56046e-14
1.89983e-13
8.35097e-14
8.43644e-14
3.57857e-13
2.13e-14
4.50637e-13
2.31966e-14
1.01182e-14
3.3062e-13
4.83744e-13
1.89983e-13
2.5888e-12
1.34983e-12
4.12861e-12
3.40801e-13
4.97629e-12
2.8975e-11
4.63185e-11
1.85573e-13
1.01182e-14
8.2655e-14
1.09233e-13
1.89983e-13
5.84568e-13
3.37458e-13
1.11201e-12
8.52002e-14
1.49959e-12
4.63932e-14
1.01182e-14
2.06637e-14
1.56046e-14
1.89983e-13
8.35097e-14
8.43644e-14
3.57857e-13
2.13e-14
4.50637e-13
2.31966e-14
1.01182e-14
3.3062e-13
4.83744e-13
1.89983e-13
2.5888e-12
1.34983e-12
4.12861e-12
3.40801e-13
4.97629e-12
2.8975e-11
4.63135e-11
1.85573e-13
1.01182e-14
8.2655e-14
1.09233e-13
1.89983e-13
5.84568e-13
3.37458e-13
1.11201e-12
8.52002e-14
1.49959e-12
4.63932e-14
1.01182e-14
2.06637e-14
1.56046e-14
1.89983e-13
8.35097e-14
8.43644e-14
3.57857e-13
2.13e-14
4.50637e-13
2.31966e-14
1.01182e-14
3.3062e-13
4.83744e-13
1.89983e-13
2.5888e-12
1.34983e-12
4.12861e-12
3.40801e-13
4.97629e-12
2.8975e-11
4.62818e-11
1.85573e-13
1.01182e-14
8.2655e-14
1.09233e-13
1.89983e-13
5.84568e-13
3.37458e-13
1.11201e-12
8.52002e-14
1.49959e-12
4.63932e-14
1.01182e-14
2.06637e-14
1.56046e-14
1.89983e-13
8.35097e-14
8.43644e-14
3.57857e-13
2.13e-14
4.50637e-13
2.31966e-14
1.01182e-14
3.3062e-13
4.83744e-13
1.89983e-13
2.5888e-12
1.34983e-12
4.12861e-12
3.40801e-13
4.97629e-12
2.8975e-11
4.62462e-11
1.85573e-13
1.01182e-14
8.2655e-14
1.09233e-13
1.89983e-13
5.84568e-13
3.37458e-13
1.11201e-12
8.52002e-14
1.49959e-12
4.63932e-14
1.01182e-14
2.06637e-14
1.56046e-14
1.89983e-13
8.35097e-14
8.43644e-14
3.57857e-13
2.13e-14
4.50637e-13
2.31966e-14
1.01182e-14
3.3062e-13
4.83744e-13
1.89983e-13
2.5888e-12
1.34983e-12
4.12861e-12
3.40801e-13
4.97629e-12
2.8975e-11
4.62771e-11
1.85573e-13
1.01182e-14
8.2655e-14
1.09233e-13
1.89983e-13
5.84568e-13
3.37458e-13
1.11201e-12
8.52002e-14
1.49959e-12
4.63932e-14
1.01182e-14
2.06637e-14
1.56046e-14
1.89983e-13
8.35097e-14
8.43644e-14
3.57857e-13
2.13e-14
4.50637e-13
2.31966e-14
1.01182e-14
3.3062e-13
4.83744e-13
1.89983e-13
2.5888e-12
1.34983e-12
4.12861e-12
3.40801e-13
4.97629e-12
2.8975e-11
4.6301e-11
1.85573e-13
1.01182e-14
8.2655e-14
1.09233e-13
1.89983e-13
5.84568e-13
3.37458e-13
1.11201e-12
8.52002e-14
1.49959e-12
4.63932e-14
1.01182e-14
2.06637e-14
1.56046e-14
1.89983e-13
8.35097e-14
8.43644e-14
3.57857e-13
2.13e-14
4.50637e-13
2.31966e-14
1.01182e-14
3.3062e-13
4.83744e-13
1.89983e-13
2.5888e-12
1.34983e-12
4.12861e-12
3.40801e-13
4.97629e-12
2.8975e-11
4.62667e-11
1.85573e-13
1.01182e-14
8.2655e-14
1.09233e-13
1.89983e-13
5.84568e-13
3.37458e-13
1.11201e-12
8.52002e-14
1.49959e-12
4.63932e-14
1.01182e-14
2.06637e-14
1.56046e-14
1.89983e-13
8.35097e-14
8.43644e-14
3.57857e-13
2.13e-14
4.50637e-13
2.31966e-14
1.01182e-14
3.3062e-13
4.83744e-13
1.89983e-13
2.5888e-12
1.34983e-12
4.12861e-12
3.40801e-13
4.97629e-12
2.8975e-11
4.62568e-11
1.85573e-13
1.01182e-14
8.2655e-14
1.09233e-13
1.89983e-13
5.84568e-13
3.37458e-13
1.11201e-12
8.52002e-14
1.49959e-12
4.63932e-14
1.01182e-14
2.06637e-14
1.56046e-14
1.89983e-13
8.35097e-14
8.43644e-14
3.57857e-13
2.13e-14
4.50637e-13
2.31966e-14
1.01182e-14
3.3062e-13
4.83744e-13
1.89983e-13
2.5888e-12
1.34983e-12
4.12861e-12
3.40801e-13
4.97629e-12
2.8975e-11
4.62806e-11
1.85573e-13
1.01182e-14
8.2655e-14
1.09233e-13
1.89983e-13
5.84568e-13
3.37458e-13
1.11201e-12
8.52002e-14
1.49959e-12
4.63932e-14
1.01182e-14
2.06637e-14
1.56046e-14
1.89983e-13
8.35097e-14
8.43644e-14
3.57857e-13
2.13e-14
4.50637e-13
2.31966e-14
1.01182e-14
3.3062e-13
4.83744e-13
1.89983e-13
2.5888e-12
1.34983e-12
4.12861e-12
3.40801e-13
4.97629e-12
2.8975e-11
4.62962e-11
1.85573e-13
1.01182e-14
8.2655e-14
1.09233e-13
1.89983e-13
5.84568e-13
3.37458e-13
1.11201e-12
8.52002e-14
1.49959e-12
4.63932e-14
1.01182e-14
2.06637e-14
1.56046e-14
1.89983e-13
8.35097e-14
8.43644e-14
3.57857e-13
2.13e-14
4.50637e-13
2.31966e-14
1.01182e-14
3.3062e-13
4.83744e-13
1.89983e-13
2.5888e-12
1.34983e-12
4.12861e-12
3.40801e-13
4.97629e-12
2.8975e-11
4.62965e-11
1.85573e-13
1.01182e-14
8.2655e-14
1.09233e-13
1.89983e-13
5.84568e-13
3.37458e-13
1.11201e-12
8.52002e-14
1.49959e-12
4.63932e-14
1.01182e-14
2.06637e-14
1.56046e-14
1.89983e-13
8.35097e-14
8.43644e-14
3.57857e-13
2.13e-14
4.50637e-13
2.31966e-14
1.01182e-14
3.3062e-13
4.83744e-13
1.89983e-13
2.5888e-12
1.34983e-12
4.12861e-12
3.40801e-13
4.97629e-12
2.8975e-11
4.63183e-11
1.85573e-13
1.01182e-14
8.2655e-14
1.09233e-13
1.89983e-13
5.84568e-13
3.37458e-13
1.11201e-12
8.52002e-14
1.49959e-12
4.63932e-14
1.01182e-14
2.06637e-14
1.56046e-14
1.89983e-13
8.35097e-14
8.43644e-14
3.57857e-13
2.13e-14
4.50637e-13
2.31966e-14
1.01182e-14
3.3062e-13
4.83744e-13
1.89983e-13
2.5888e-12
1.34983e-12
4.12861e-12
3.40801e-13
4.97629e-12
2.8975e-11
4.62977e-11
1.85573e-13
1.01182e-14
8.2655e-14
1.09233e-13
1.89983e-13
5.84568e-13
3.37458e-13
1.11201e-12
8.52002e-14
1.49959e-12
4.63932e-14
1.01182e-14
2.06637e-14
1.56046e-14
1.89983e-13
8.35097e-14
8.43644e-14
3.57857e-13
2.13e-14
4.50637e-13
2.31966e-14
1.01182e-14
3.3062e-13
4.83744e-13
1.89983e-13
2.5888e-12
1.34983e-12
4.12861e-12
3.40801e-13
4.97629e-12
2.8975e-11
4.63066e-11
1.85573e-13
1.01182e-14
8.2655e-14
1.09233e-13
1.89983e-13
5.84568e-13
3.37458e-13
1.11201e-12
8.52002e-14
1.49959e-12
4.63932e-14
1.01182e-14
2.06637e-14
1.56046e-14
1.89983e-13
8.35097e-14
8.43644e-14
3.57857e-13
2.13e-14
4.50637e-13
2.31966e-14
1.01182e-14
3.3062e-13
4.83744e-13
1.89983e-13
2.5888e-12
1.34983e-12
4.12861e-12
3.40801e-13
4.97629e-12
2.8975e-11
4.63072e-11
1.85573e-13
1.01182e-14
8.2655e-14
1.09233e-13
1.89983e-13
5.84568e-13
3.37458e-13
1.11201e-12
8.52002e-14
1.49959e-12
4.63932e-14
1.01182e-14
2.06637e-14
1.56046e-14
1.89983e-13
8.35097e-14
8.43644e-14
3.57857e-13
2.13e-14
4.50637e-13
2.31966e-14
1.01182e-14
3.3062e-13
4.83744e-13
1.89983e-13
2.5888e-12
1.34983e-12
4.12861e-12
3.40801e-13
4.97629e-12
3.01535e-11
4.9946e-11
1.85573e-13
1.01182e-14
8.2655e-14
1.09233e-13
1.89983e-13
5.84568e-13
3.37458e-13
1.11201e-12
8.52002e-14
1.49959e-12
4.63932e-14
1.01182e-14
2.06637e-14
1.56046e-14
1.89983e-13
8.35097e-14
8.43644e-14
3.57857e-13
2.13e-14
4.50637e-13
2.31966e-14
1.01182e-14
3.3062e-13
4.83744e-13
1.89983e-13
2.5888e-12
1.34983e-12
4.12861e-12
3.40801e-13
4.97629e-12
3.01535e-11
4.74674e-11
1.85573e-13
1.01182e-14
8.2655e-14
1.09233e-13
1.89983e-13
5.84568e-13
3.37458e-13
1.11201e-12
8.52002e-14
1.49959e-12
4.63932e-14
1.01182e-14
2.06637e-14
1.56046e-14
1.89983e-13
8.35097e-14
8.43644e-14
3.57857e-13
2.13e-14
4.50637e-13
2.31966e-14
1.01182e-14
3.3062e-13
4.83744e-13
1.89983e-13
2.5888e-12
1.34983e-12
4.12861e-12
3.40801e-13
4.97629e-12
3.01535e-11
4.76059e-11
1.85573e-13
1.01182e-14
8.2655e-14
1.09233e-13
1.89983e-13
5.84568e-13
3.37458e-13
1.11201e-12
8.52002e-14
1.49959e-12
4.63932e-14
1.01182e-14
2.06637e-14
1.56046e-14
1.89983e-13
8.35097e-14
8.43644e-14
3.57857e-13
2.13e-14
4.50637e-13
2.31966e-14
1.01182e-14
3.3062e-13
4.83744e-13
1.89983e-13
2.5888e-12
1.34983e-12
4.12861e-12
3.40801e-13
4.97629e-12
3.01535e-11
4.9078e-11
1.85573e-13
1.01182e-14
8.2655e-14
1.09233e-13
1.89983e-13
5.84568e-13
3.37458e-13
1.11201e-12
8.52002e-14
1.49959e-12
4.63932e-14
1.01182e-14
2.06637e-14
1.56046e-14
1.89983e-13
8.35097e-14
8.43644e-14
3.57857e-13
2.13e-14
4.50637e-13
2.31966e-14
1.01182e-14
3.3062e-13
4.83744e-13
1.89983e-13
2.5888e-12
1.34983e-12
4.12861e-12
3.40801e-13
4.97629e-12
3.01535e-11
4.79022e-11
1.85573e-13
1.01182e-14
8.2655e-14
1.09233e-13
1.89983e-13
5.84568e-13
3.37458e-13
1.11201e-12
8.52002e-14
1.49959e-12
4.63932e-14
1.01182e-14
2.06637e-14
1.56046e-14
1.89983e-13
8.35097e-14
8.43644e-14
3.57857e-13
2.13e-14
4.50637e-13
2.31966e-14
1.01182e-14
3.3062e-13
4.83744e-13
1.89983e-13
2.5888e-12
1.34983e-12
4.12861e-12
3.40801e-13
4.97629e-12
3.01535e-11
4.8926e-11
1.85573e-13
1.01182e-14
8.2655e-14
1.09233e-13
1.89983e-13
5.84568e-13
3.37458e-13
1.11201e-12
8.52002e-14
1.49959e-12
4.63932e-14
1.01182e-14
2.06637e-14
1.56046e-14
1.89983e-13
8.35097e-14
8.43644e-14
3.57857e-13
2.13e-14
4.50637e-13
2.31966e-14
1.01182e-14
3.3062e-13
4.83744e-13
1.89983e-13
2.5888e-12
1.34983e-12
4.12861e-12
3.40801e-13
4.97629e-12
3.01535e-11
4.90583e-11
1.85573e-13
1.01182e-14
8.2655e-14
1.09233e-13
1.89983e-13
5.84568e-13
3.37458e-13
1.11201e-12
8.52002e-14
1.49959e-12
4.63932e-14
1.01182e-14
2.06637e-14
1.56046e-14
1.89983e-13
8.35097e-14
8.43644e-14
3.57857e-13
2.13e-14
4.50637e-13
2.31966e-14
1.01182e-14
3.3062e-13
4.83744e-13
1.89983e-13
2.5888e-12
1.34983e-12
4.12861e-12
3.40801e-13
4.97629e-12
3.01535e-11
4.97711e-11
1.85573e-13
1.01182e-14
8.2655e-14
1.09233e-13
1.89983e-13
5.84568e-13
3.37458e-13
1.11201e-12
8.52002e-14
1.49959e-12
4.63932e-14
1.01182e-14
2.06637e-14
1.56046e-14
1.89983e-13
8.35097e-14
8.43644e-14
3.57857e-13
2.13e-14
4.50637e-13
2.31966e-14
1.01182e-14
3.3062e-13
4.83744e-13
1.89983e-13
2.5888e-12
1.34983e-12
4.12861e-12
3.40801e-13
4.97629e-12
3.01535e-11
4.861e-11
1.85573e-13
1.01182e-14
8.2655e-14
1.09233e-13
1.89983e-13
5.84568e-13
3.37458e-13
1.11201e-12
8.52002e-14
1.49959e-12
4.63932e-14
1.01182e-14
2.06637e-14
1.56046e-14
1.89983e-13
8.35097e-14
8.43644e-14
3.57857e-13
2.13e-14
4.50637e-13
2.31966e-14
1.01182e-14
3.3062e-13
4.83744e-13
1.89983e-13
2.5888e-12
1.34983e-12
4.12861e-12
3.40801e-13
4.97629e-12
3.01535e-11
4.80345e-11
1.85573e-13
1.01182e-14
8.2655e-14
1.09233e-13
1.89983e-13
5.84568e-13
3.37458e-13
1.11201e-12
8.52002e-14
1.49959e-12
4.63932e-14
1.01182e-14
2.06637e-14
1.56046e-14
1.89983e-13
8.35097e-14
8.43644e-14
3.57857e-13
2.13e-14
4.50637e-13
2.31966e-14
1.01182e-14
3.3062e-13
4.83744e-13
1.89983e-13
2.5888e-12
1.34983e-12
4.12861e-12
3.40801e-13
4.97629e-12
3.01535e-11
4.94281e-11
1.85573e-13
1.01182e-14
8.2655e-14
1.09233e-13
1.89983e-13
5.84568e-13
3.37458e-13
1.11201e-12
8.52002e-14
1.49959e-12
4.63932e-14
1.01182e-14
2.06637e-14
1.56046e-14
1.89983e-13
8.35097e-14
8.43644e-14
3.57857e-13
2.13e-14
4.50637e-13
2.31966e-14
1.01182e-14
3.3062e-13
4.83744e-13
1.89983e-13
2.5888e-12
1.34983e-12
4.12861e-12
3.40801e-13
4.97629e-12
3.01535e-11
4.86378e-11
1.85573e-13
1.01182e-14
8.2655e-14
1.09233e-13
1.89983e-13
5.84568e-13
3.37458e-13
1.11201e-12
8.52002e-14
1.49959e-12
4.63932e-14
1.01182e-14
2.06637e-14
1.56046e-14
1.89983e-13
8.35097e-14
8.43644e-14
3.57857e-13
2.13e-14
4.50637e-13
2.31966e-14
1.01182e-14
3.3062e-13
4.83744e-13
1.89983e-13
2.5888e-12
1.34983e-12
4.12861e-12
3.40801e-13
4.97629e-12
3.01535e-11
4.80723e-11
1.85573e-13
1.01182e-14
8.2655e-14
1.09233e-13
1.89983e-13
5.84568e-13
3.37458e-13
1.11201e-12
8.52002e-14
1.49959e-12
4.63932e-14
1.01182e-14
2.06637e-14
1.56046e-14
1.89983e-13
8.35097e-14
8.43644e-14
3.57857e-13
2.13e-14
4.50637e-13
2.31966e-14
1.01182e-14
3.3062e-13
4.83744e-13
1.89983e-13
2.5888e-12
1.34983e-12
4.12861e-12
3.40801e-13
4.97629e-12
3.01535e-11
4.86622e-11
1.85573e-13
1.01182e-14
8.2655e-14
1.09233e-13
1.89983e-13
5.84568e-13
3.37458e-13
1.11201e-12
8.52002e-14
1.49959e-12
4.63932e-14
1.01182e-14
2.06637e-14
1.56046e-14
1.89983e-13
8.35097e-14
8.43644e-14
3.57857e-13
2.13e-14
4.50637e-13
2.31966e-14
1.01182e-14
3.3062e-13
4.83744e-13
1.89983e-13
2.5888e-12
1.34983e-12
4.12861e-12
3.40801e-13
4.97629e-12
3.01535e-11
4.79134e-11
1.85573e-13
1.01182e-14
8.2655e-14
1.09233e-13
1.89983e-13
5.84568e-13
3.37458e-13
1.11201e-12
8.52002e-14
1.49959e-12
4.63932e-14
1.01182e-14
2.06637e-14
1.56046e-14
1.89983e-13
8.35097e-14
8.43644e-14
3.57857e-13
2.13e-14
4.50637e-13
2.31966e-14
1.01182e-14
3.3062e-13
4.83744e-13
1.89983e-13
2.5888e-12
1.34983e-12
4.12861e-12
3.40801e-13
4.97629e-12
3.01535e-11
4.84287e-11
1.85573e-13
1.01182e-14
8.2655e-14
1.09233e-13
1.89983e-13
5.84568e-13
3.37458e-13
1.11201e-12
8.52002e-14
1.49959e-12
4.63932e-14
1.01182e-14
2.06637e-14
1.56046e-14
1.89983e-13
8.35097e-14
8.43644e-14
3.57857e-13
2.13e-14
4.50637e-13
2.31966e-14
1.01182e-14
3.3062e-13
4.83744e-13
1.89983e-13
2.5888e-12
1.34983e-12
4.12861e-12
3.40801e-13
4.97629e-12
3.1332e-11
5.12108e-11
1.85573e-13
1.01182e-14
8.2655e-14
1.09233e-13
1.89983e-13
5.84568e-13
3.37458e-13
1.11201e-12
8.52002e-14
1.49959e-12
4.63932e-14
1.01182e-14
2.06637e-14
1.56046e-14
1.89983e-13
8.35097e-14
8.43644e-14
3.57857e-13
2.13e-14
4.50637e-13
2.31966e-14
1.01182e-14
3.3062e-13
4.83744e-13
1.89983e-13
2.5888e-12
1.34983e-12
4.12861e-12
3.40801e-13
4.97629e-12
3.1332e-11
4.86287e-11
1.85573e-13
1.01182e-14
8.2655e-14
1.09233e-13
1.89983e-13
5.84568e-13
3.37458e-13
1.11201e-12
8.52002e-14
1.49959e-12
4.63932e-14
1.01182e-14
2.06637e-14
1.56046e-14
1.89983e-13
8.35097e-14
8.43644e-14
3.57857e-13
2.13e-14
4.50637e-13
2.31966e-14
1.01182e-14
3.3062e-13
4.83744e-13
1.89983e-13
2.5888e-12
1.34983e-12
4.12861e-12
3.40801e-13
4.97629e-12
3.1332e-11
4.87481e-11
1.85573e-13
1.01182e-14
8.2655e-14
1.09233e-13
1.89983e-13
5.84568e-13
3.37458e-13
1.11201e-12
8.52002e-14
1.49959e-12
4.63932e-14
1.01182e-14
2.06637e-14
1.56046e-14
1.89983e-13
8.35097e-14
8.43644e-14
3.57857e-13
2.13e-14
4.50637e-13
2.31966e-14
1.01182e-14
3.3062e-13
4.83744e-13
1.89983e-13
2.5888e-12
1.34983e-12
4.12861e-12
3.40801e-13
4.97629e-12
3.1332e-11
5.02343e-11
1.85573e-13
1.01182e-14
8.2655e-14
1.09233e-13
1.89983e-13
5.84568e-13
3.37458e-13
1.11201e-12
8.52002e-14
1.49959e-12
4.63932e-14
1.01182e-14
2.06637e-14
1.56046e-14
1.89983e-13
8.35097e-14
8.43644e-14
3.57857e-13
2.13e-14
4.50637e-13
2.31966e-14
1.01182e-14
3.3062e-13
4.83744e-13
1.89983e-13
2.5888e-12
1.34983e-12
4.12861e-12
3.40801e-13
4.97629e-12
3.1332e-11
4.90733e-11
1.85573e-13
1.01182e-14
8.2655e-14
1.09233e-13
1.89983e-13
5.84568e-13
3.37458e-13
1.11201e-12
8.52002e-14
1.49959e-12
4.63932e-14
1.01182e-14
2.06637e-14
1.56046e-14
1.89983e-13
8.35097e-14
8.43644e-14
3.57857e-13
2.13e-14
4.50637e-13
2.31966e-14
1.01182e-14
3.3062e-13
4.83744e-13
1.89983e-13
2.5888e-12
1.34983e-12
4.12861e-12
3.40801e-13
4.97629e-12
3.1332e-11
5.01007e-11
1.85573e-13
1.01182e-14
8.2655e-14
1.09233e-13
1.89983e-13
5.84568e-13
3.37458e-13
1.11201e-12
8.52002e-14
1.49959e-12
4.63932e-14
1.01182e-14
2.06637e-14
1.56046e-14
1.89983e-13
8.35097e-14
8.43644e-14
3.57857e-13
2.13e-14
4.50637e-13
2.31966e-14
1.01182e-14
3.3062e-13
4.83744e-13
1.89983e-13
2.5888e-12
1.34983e-12
4.12861e-12
3.40801e-13
4.97629e-12
3.1332e-11
5.02855e-11
1.85573e-13
1.01182e-14
8.2655e-14
1.09233e-13
1.89983e-13
5.84568e-13
3.37458e-13
1.11201e-12
8.52002e-14
1.49959e-12
4.63932e-14
1.01182e-14
2.06637e-14
1.56046e-14
1.89983e-13
8.35097e-14
8.43644e-14
3.57857e-13
2.13e-14
4.50637e-13
2.31966e-14
1.01182e-14
3.3062e-13
4.83744e-13
1.89983e-13
2.5888e-12
1.34983e-12
4.12861e-12
3.40801e-13
4.97629e-12
3.1332e-11
5.09649e-11
1.85573e-13
1.01182e-14
8.2655e-14
1.09233e-13
1.89983e-13
5.84568e-13
3.37458e-13
1.11201e-12
8.52002e-14
1.49959e-12
4.63932e-14
1.01182e-14
2.06637e-14
1.56046e-14
1.89983e-13
8.35097e-14
8.43644e-14
3.57857e-13
2.13e-14
4.50637e-13
2.31966e-14
1.01182e-14
3.3062e-13
4.83744e-13
1.89983e-13
2.5888e-12
1.34983e-12
4.12861e-12
3.40801e-13
4.97629e-12
3.1332e-11
4.98187e-11
1.85573e-13
1.01182e-14
8.2655e-14
1.09233e-13
1.89983e-13
5.84568e-13
3.37458e-13
1.11201e-12
8.52002e-14
1.49959e-12
4.63932e-14
1.01182e-14
2.06637e-14
1.56046e-14
1.89983e-13
8.35097e-14
8.43644e-14
3.57857e-13
2.13e-14
4.50637e-13
2.31966e-14
1.01182e-14
3.3062e-13
4.83744e-13
1.89983e-13
2.5888e-12
1.34983e-12
4.12861e-12
3.40801e-13
4.97629e-12
3.1332e-11
4.92759e-11
1.85573e-13
1.01182e-14
8.2655e-14
1.09233e-13
1.89983e-13
5.84568e-13
3.37458e-13
1.11201e-12
8.52002e-14
1.49959e-12
4.63932e-14
1.01182e-14
2.06637e-14
1.56046e-14
1.89983e-13
8.35097e-14
8.43644e-14
3.57857e-13
2.13e-14
4.50637e-13
2.31966e-14
1.01182e-14
3.3062e-13
4.83744e-13
1.89983e-13
2.5888e-12
1.34983e-12
4.12861e-12
3.40801e-13
4.97629e-12
3.1332e-11
5.05134e-11
1.85573e-13
1.01182e-14
8.2655e-14
1.09233e-13
1.89983e-13
5.84568e-13
3.37458e-13
1.11201e-12
8.52002e-14
1.49959e-12
4.63932e-14
1.01182e-14
2.06637e-14
1.56046e-14
1.89983e-13
8.35097e-14
8.43644e-14
3.57857e-13
2.13e-14
4.50637e-13
2.31966e-14
1.01182e-14
3.3062e-13
4.83744e-13
1.89983e-13
2.5888e-12
1.34983e-12
4.12861e-12
3.40801e-13
4.97629e-12
3.1332e-11
4.98289e-11
1.85573e-13
1.01182e-14
8.2655e-14
1.09233e-13
1.89983e-13
5.84568e-13
3.37458e-13
1.11201e-12
8.52002e-14
1.49959e-12
4.63932e-14
1.01182e-14
2.06637e-14
1.56046e-14
1.89983e-13
8.35097e-14
8.43644e-14
3.57857e-13
2.13e-14
4.50637e-13
2.31966e-14
1.01182e-14
3.3062e-13
4.83744e-13
1.89983e-13
2.5888e-12
1.34983e-12
4.12861e-12
3.40801e-13
4.97629e-12
3.1332e-11
4.9285e-11
1.85573e-13
1.01182e-14
8.2655e-14
1.09233e-13
1.89983e-13
5.84568e-13
3.37458e-13
1.11201e-12
8.52002e-14
1.49959e-12
4.63932e-14
1.01182e-14
2.06637e-14
1.56046e-14
1.89983e-13
8.35097e-14
8.43644e-14
3.57857e-13
2.13e-14
4.50637e-13
2.31966e-14
1.01182e-14
3.3062e-13
4.83744e-13
1.89983e-13
2.5888e-12
1.34983e-12
4.12861e-12
3.40801e-13
4.97629e-12
3.1332e-11
4.97907e-11
1.85573e-13
1.01182e-14
8.2655e-14
1.09233e-13
1.89983e-13
5.84568e-13
3.37458e-13
1.11201e-12
8.52002e-14
1.49959e-12
4.63932e-14
1.01182e-14
2.06637e-14
1.56046e-14
1.89983e-13
8.35097e-14
8.43644e-14
3.57857e-13
2.13e-14
4.50637e-13
2.31966e-14
1.01182e-14
3.3062e-13
4.83744e-13
1.89983e-13
2.5888e-12
1.34983e-12
4.12861e-12
3.40801e-13
4.97629e-12
3.1332e-11
4.90911e-11
1.85573e-13
1.01182e-14
8.2655e-14
1.09233e-13
1.89983e-13
5.84568e-13
3.37458e-13
1.11201e-12
8.52002e-14
1.49959e-12
4.63932e-14
1.01182e-14
2.06637e-14
1.56046e-14
1.89983e-13
8.35097e-14
8.43644e-14
3.57857e-13
2.13e-14
4.50637e-13
2.31966e-14
1.01182e-14
3.3062e-13
4.83744e-13
1.89983e-13
2.5888e-12
1.34983e-12
4.12861e-12
3.40801e-13
4.97629e-12
3.1332e-11
4.96297e-11
1.85573e-13
1.01182e-14
8.2655e-14
1.09233e-13
1.89983e-13
5.84568e-13
3.37458e-13
1.11201e-12
8.52002e-14
1.49959e-12
4.63932e-14
1.01182e-14
2.06637e-14
1.56046e-14
1.89983e-13
8.35097e-14
8.43644e-14
3.57857e-13
2.13e-14
4.50637e-13
2.31966e-14
1.01182e-14
3.3062e-13
4.83744e-13
1.89983e-13
2.5888e-12
1.34983e-12
4.12861e-12
3.40801e-13
4.97629e-12
3.25105e-11
4.98635e-11
1.85573e-13
1.01182e-14
8.2655e-14
1.09233e-13
1.89983e-13
5.84568e-13
3.37458e-13
1.11201e-12
8.52002e-14
1.49959e-12
4.63932e-14
1.01182e-14
2.06637e-14
1.56046e-14
1.89983e-13
8.35097e-14
8.43644e-14
3.57857e-13
2.13e-14
4.50637e-13
2.31966e-14
1.01182e-14
3.3062e-13
4.83744e-13
1.89983e-13
2.5888e-12
1.34983e-12
4.12861e-12
3.40801e-13
4.97629e-12
3.25105e-11
5.29025e-11
1.85573e-13
1.01182e-14
8.2655e-14
1.09233e-13
1.89983e-13
5.84568e-13
3.37458e-13
1.11201e-12
8.52002e-14
1.49959e-12
4.63932e-14
1.01182e-14
2.06637e-14
1.56046e-14
1.89983e-13
8.35097e-14
8.43644e-14
3.57857e-13
2.13e-14
4.50637e-13
2.31966e-14
1.01182e-14
3.3062e-13
4.83744e-13
1.89983e-13
2.5888e-12
1.34983e-12
4.12861e-12
3.40801e-13
4.97629e-12
3.25105e-11
5.15807e-11
1.85573e-13
1.01182e-14
8.2655e-14
1.09233e-13
1.89983e-13
5.84568e-13
3.37458e-13
1.11201e-12
8.52002e-14
1.49959e-12
4.63932e-14
1.01182e-14
2.06637e-14
1.56046e-14
1.89983e-13
8.35097e-14
8.43644e-14
3.57857e-13
2.13e-14
4.50637e-13
2.31966e-14
1.01182e-14
3.3062e-13
4.83744e-13
1.89983e-13
2.5888e-12
1.34983e-12
4.12861e-12
3.40801e-13
4.97629e-12
3.25105e-11
5.05311e-11
1.85573e-13
1.01182e-14
8.2655e-14
1.09233e-13
1.89983e-13
5.84568e-13
3.37458e-13
1.11201e-12
8.52002e-14
1.49959e-12
4.63932e-14
1.01182e-14
2.06637e-14
1.56046e-14
1.89983e-13
8.35097e-14
8.43644e-14
3.57857e-13
2.13e-14
4.50637e-13
2.31966e-14
1.01182e-14
3.3062e-13
4.83744e-13
1.89983e-13
2.5888e-12
1.34983e-12
4.12861e-12
3.40801e-13
4.97629e-12
3.25105e-11
5.31676e-11
1.85573e-13
1.01182e-14
8.2655e-14
1.09233e-13
1.89983e-13
5.84568e-13
3.37458e-13
1.11201e-12
8.52002e-14
1.49959e-12
4.63932e-14
1.01182e-14
2.06637e-14
1.56046e-14
1.89983e-13
8.35097e-14
8.43644e-14
3.57857e-13
2.13e-14
4.50637e-13
2.31966e-14
1.01182e-14
3.3062e-13
4.83744e-13
1.89983e-13
2.5888e-12
1.34983e-12
4.12861e-12
3.40801e-13
4.97629e-12
3.25105e-11
5.1118e-11
1.85573e-13
1.01182e-14
8.2655e-14
1.09233e-13
1.89983e-13
5.84568e-13
3.37458e-13
1.11201e-12
8.52002e-14
1.49959e-12
4.63932e-14
1.01182e-14
2.06637e-14
1.56046e-14
1.89983e-13
8.35097e-14
8.43644e-14
3.57857e-13
2.13e-14
4.50637e-13
2.31966e-14
1.01182e-14
3.3062e-13
4.83744e-13
1.89983e-13
2.5888e-12
1.34983e-12
4.12861e-12
3.40801e-13
4.97629e-12
3.25105e-11
5.12529e-11
1.85573e-13
1.01182e-14
8.2655e-14
1.09233e-13
1.89983e-13
5.84568e-13
3.37458e-13
1.11201e-12
8.52002e-14
1.49959e-12
4.63932e-14
1.01182e-14
2.06637e-14
1.56046e-14
1.89983e-13
8.35097e-14
8.43644e-14
3.57857e-13
2.13e-14
4.50637e-13
2.31966e-14
1.01182e-14
3.3062e-13
4.83744e-13
1.89983e-13
2.5888e-12
1.34983e-12
4.12861e-12
3.40801e-13
4.97629e-12
3.25105e-11
5.05525e-11
1.85573e-13
1.01182e-14
8.2655e-14
1.09233e-13
1.89983e-13
5.84568e-13
3.37458e-13
1.11201e-12
8.52002e-14
1.49959e-12
4.63932e-14
1.01182e-14
2.06637e-14
1.56046e-14
1.89983e-13
8.35097e-14
8.43644e-14
3.57857e-13
2.13e-14
4.50637e-13
2.31966e-14
1.01182e-14
3.3062e-13
4.83744e-13
1.89983e-13
2.5888e-12
1.34983e-12
4.12861e-12
3.40801e-13
4.97629e-12
3.25105e-11
5.13622e-11
1.85573e-13
1.01182e-14
8.2655e-14
1.09233e-13
1.89983e-13
5.84568e-13
3.37458e-13
1.11201e-12
8.52002e-14
1.49959e-12
4.63932e-14
1.01182e-14
2.06637e-14
1.56046e-14
1.89983e-13
8.35097e-14
8.43644e-14
3.57857e-13
2.13e-14
4.50637e-13
2.31966e-14
1.01182e-14
3.3062e-13
4.83744e-13
1.89983e-13
2.5888e-12
1.34983e-12
4.12861e-12
3.40801e-13
4.97629e-12
3.25105e-11
5.22323e-11
1.85573e-13
1.01182e-14
8.2655e-14
1.09233e-13
1.89983e-13
5.84568e-13
3.37458e-13
1.11201e-12
8.52002e-14
1.49959e-12
4.63932e-14
1.01182e-14
2.06637e-14
1.56046e-14
1.89983e-13
8.35097e-14
8.43644e-14
3.57857e-13
2.13e-14
4.50637e-13
2.31966e-14
1.01182e-14
3.3062e-13
4.83744e-13
1.89983e-13
2.5888e-12
1.34983e-12
4.12861e-12
3.40801e-13
4.97629e-12
3.25105e-11
5.11655e-11
1.85573e-13
1.01182e-14
8.2655e-14
1.09233e-13
1.89983e-13
5.84568e-13
3.37458e-13
1.11201e-12
8.52002e-14
1.49959e-12
4.63932e-14
1.01182e-14
2.06637e-14
1.56046e-14
1.89983e-13
8.35097e-14
8.43644e-14
3.57857e-13
2.13e-14
4.50637e-13
2.31966e-14
1.01182e-14
3.3062e-13
4.83744e-13
1.89983e-13
2.5888e-12
1.34983e-12
4.12861e-12
3.40801e-13
4.97629e-12
3.25105e-11
5.32453e-11
1.85573e-13
1.01182e-14
8.2655e-14
1.09233e-13
1.89983e-13
5.84568e-13
3.37458e-13
1.11201e-12
8.52002e-14
1.49959e-12
4.63932e-14
1.01182e-14
2.06637e-14
1.56046e-14
1.89983e-13
8.35097e-14
8.43644e-14
3.57857e-13
2.13e-14
4.50637e-13
2.31966e-14
1.01182e-14
3.3062e-13
4.83744e-13
1.89983e-13
2.5888e-12
1.34983e-12
4.12861e-12
3.40801e-13
4.97629e-12
3.25105e-11
5.20486e-11
1.85573e-13
1.01182e-14
8.2655e-14
1.09233e-13
1.89983e-13
5.84568e-13
3.37458e-13
1.11201e-12
8.52002e-14
1.49959e-12
4.63932e-14
1.01182e-14
2.06637e-14
1.56046e-14
1.89983e-13
8.35097e-14
8.43644e-14
3.57857e-13
2.13e-14
4.50637e-13
2.31966e-14
1.01182e-14
3.3062e-13
4.83744e-13
1.89983e-13
2.5888e-12
1.34983e-12
4.12861e-12
3.40801e-13
4.97629e-12
3.25105e-11
5.14792e-11
1.85573e-13
1.01182e-14
8.2655e-14
1.09233e-13
1.89983e-13
5.84568e-13
3.37458e-13
1.11201e-12
8.52002e-14
1.49959e-12
4.63932e-14
1.01182e-14
2.06637e-14
1.56046e-14
1.89983e-13
8.35097e-14
8.43644e-14
3.57857e-13
2.13e-14
4.50637e-13
2.31966e-14
1.01182e-14
3.3062e-13
4.83744e-13
1.89983e-13
2.5888e-12
1.34983e-12
4.12861e-12
3.40801e-13
4.97629e-12
3.25105e-11
5.20697e-11
1.85573e-13
1.01182e-14
8.2655e-14
1.09233e-13
1.89983e-13
5.84568e-13
3.37458e-13
1.11201e-12
8.52002e-14
1.49959e-12
4.63932e-14
1.01182e-14
2.06637e-14
1.56046e-14
1.89983e-13
8.35097e-14
8.43644e-14
3.57857e-13
2.13e-14
4.50637e-13
2.31966e-14
1.01182e-14
3.3062e-13
4.83744e-13
1.89983e-13
2.5888e-12
1.34983e-12
4.12861e-12
3.40801e-13
4.97629e-12
3.25105e-11
5.1455e-11
1.85573e-13
1.01182e-14
8.2655e-14
1.09233e-13
1.89983e-13
5.84568e-13
3.37458e-13
1.11201e-12
8.52002e-14
1.49959e-12
4.63932e-14
1.01182e-14
2.06637e-14
1.56046e-14
1.89983e-13
8.35097e-14
8.43644e-14
3.57857e-13
2.13e-14
4.50637e-13
2.31966e-14
1.01182e-14
3.3062e-13
4.83744e-13
1.89983e-13
2.5888e-12
1.34983e-12
4.12861e-12
3.40801e-13
4.97629e-12
3.3689e-11
5.09884e-11
1.85573e-13
1.01182e-14
8.2655e-14
1.09233e-13
1.89983e-13
5.84568e-13
3.37458e-13
1.11201e-12
8.52002e-14
1.49959e-12
4.63932e-14
1.01182e-14
2.06637e-14
1.56046e-14
1.89983e-13
8.35097e-14
8.43644e-14
3.57857e-13
2.13e-14
4.50637e-13
2.31966e-14
1.01182e-14
3.3062e-13
4.83744e-13
1.89983e-13
2.5888e-12
1.34983e-12
4.12861e-12
3.40801e-13
4.97629e-12
3.3689e-11
5.40534e-11
1.85573e-13
1.01182e-14
8.2655e-14
1.09233e-13
1.89983e-13
5.84568e-13
3.37458e-13
1.11201e-12
8.52002e-14
1.49959e-12
4.63932e-14
1.01182e-14
2.06637e-14
1.56046e-14
1.89983e-13
8.35097e-14
8.43644e-14
3.57857e-13
2.13e-14
4.50637e-13
2.31966e-14
1.01182e-14
3.3062e-13
4.83744e-13
1.89983e-13
2.5888e-12
1.34983e-12
4.12861e-12
3.40801e-13
4.97629e-12
3.3689e-11
5.27696e-11
1.85573e-13
1.01182e-14
8.2655e-14
1.09233e-13
1.89983e-13
5.84568e-13
3.37458e-13
1.11201e-12
8.52002e-14
1.49959e-12
4.63932e-14
1.01182e-14
2.06637e-14
1.56046e-14
1.89983e-13
8.35097e-14
8.43644e-14
3.57857e-13
2.13e-14
4.50637e-13
2.31966e-14
1.01182e-14
3.3062e-13
4.83744e-13
1.89983e-13
2.5888e-12
1.34983e-12
4.12861e-12
3.40801e-13
4.97629e-12
3.3689e-11
5.16882e-11
1.85573e-13
1.01182e-14
8.2655e-14
1.09233e-13
1.89983e-13
5.84568e-13
3.37458e-13
1.11201e-12
8.52002e-14
1.49959e-12
4.63932e-14
1.01182e-14
2.06637e-14
1.56046e-14
1.89983e-13
8.35097e-14
8.43644e-14
3.57857e-13
2.13e-14
4.50637e-13
2.31966e-14
1.01182e-14
3.3062e-13
4.83744e-13
1.89983e-13
2.5888e-12
1.34983e-12
4.12861e-12
3.40801e-13
4.97629e-12
3.3689e-11
5.41904e-11
1.85573e-13
1.01182e-14
8.2655e-14
1.09233e-13
1.89983e-13
5.84568e-13
3.37458e-13
1.11201e-12
8.52002e-14
1.49959e-12
4.63932e-14
1.01182e-14
2.06637e-14
1.56046e-14
1.89983e-13
8.35097e-14
8.43644e-14
3.57857e-13
2.13e-14
4.50637e-13
2.31966e-14
1.01182e-14
3.3062e-13
4.83744e-13
1.89983e-13
2.5888e-12
1.34983e-12
4.12861e-12
3.40801e-13
4.97629e-12
3.3689e-11
5.23392e-11
1.85573e-13
1.01182e-14
8.2655e-14
1.09233e-13
1.89983e-13
5.84568e-13
3.37458e-13
1.11201e-12
8.52002e-14
1.49959e-12
4.63932e-14
1.01182e-14
2.06637e-14
1.56046e-14
1.89983e-13
8.35097e-14
8.43644e-14
3.57857e-13
2.13e-14
4.50637e-13
2.31966e-14
1.01182e-14
3.3062e-13
4.83744e-13
1.89983e-13
2.5888e-12
1.34983e-12
4.12861e-12
3.40801e-13
4.97629e-12
3.3689e-11
5.23951e-11
1.85573e-13
1.01182e-14
8.2655e-14
1.09233e-13
1.89983e-13
5.84568e-13
3.37458e-13
1.11201e-12
8.52002e-14
1.49959e-12
4.63932e-14
1.01182e-14
2.06637e-14
1.56046e-14
1.89983e-13
8.35097e-14
8.43644e-14
3.57857e-13
2.13e-14
4.50637e-13
2.31966e-14
1.01182e-14
3.3062e-13
4.83744e-13
1.89983e-13
2.5888e-12
1.34983e-12
4.12861e-12
3.40801e-13
4.97629e-12
3.3689e-11
5.16496e-11
1.85573e-13
1.01182e-14
8.2655e-14
1.09233e-13
1.89983e-13
5.84568e-13
3.37458e-13
1.11201e-12
8.52002e-14
1.49959e-12
4.63932e-14
1.01182e-14
2.06637e-14
1.56046e-14
1.89983e-13
8.35097e-14
8.43644e-14
3.57857e-13
2.13e-14
4.50637e-13
2.31966e-14
1.01182e-14
3.3062e-13
4.83744e-13
1.89983e-13
2.5888e-12
1.34983e-12
4.12861e-12
3.40801e-13
4.97629e-12
3.3689e-11
[...]
1.09233e-13
1.89983e-13
5.84568e-13
3.37458e-13
1.11201e-12
8.52002e-14
1.49959e-12
4.63932e-14
1.01182e-14
2.06637e-14
1.56046e-14
1.89983e-13
8.35097e-14
8.43644e-14
3.57857e-13
2.13e-14
4.50637e-13
2.31966e-14
1.01182e-14
3.3062e-13
4.83744e-13
1.89983e-13
2.5888e-12
1.34983e-12
4.12861e-12
3.40801e-13
4.97629e-12
4.31168e-11
5.7466e-11
1.85573e-13
1.01182e-14
8.2655e-14
1.09233e-13
1.89983e-13
5.84568e-13
3.37458e-13
1.11201e-12
8.52002e-14
1.49959e-12
4.63932e-14
1.01182e-14
2.06637e-14
1.56046e-14
1.89983e-13
8.35097e-14
8.43644e-14
3.57857e-13
2.13e-14
4.50637e-13
2.31966e-14
1.01182e-14
3.3062e-13
4.83744e-13
1.89983e-13
2.5888e-12
1.34983e-12
4.12861e-12
3.40801e-13
4.97629e-12
4.31168e-11
5.8406e-11
1.85573e-13
1.01182e-14
8.2655e-14
1.09233e-13
1.89983e-13
5.84568e-13
3.37458e-13
1.11201e-12
8.52002e-14
1.49959e-12
4.63932e-14
1.01182e-14
2.06637e-14
1.56046e-14
1.89983e-13
8.35097e-14
8.43644e-14
3.57857e-13
2.13e-14
4.50637e-13
2.31966e-14
1.01182e-14
3.3062e-13
4.83744e-13
1.89983e-13
2.5888e-12
1.34983e-12
4.12861e-12
3.40801e-13
4.97629e-12
4.31168e-11
6.19696e-11
1.85573e-13
1.01182e-14
8.2655e-14
1.09233e-13
1.89983e-13
5.84568e-13
3.37458e-13
1.11201e-12
8.52002e-14
1.49959e-12
4.63932e-14
1.01182e-14
2.06637e-14
1.56046e-14
1.89983e-13
8.35097e-14
8.43644e-14
3.57857e-13
2.13e-14
4.50637e-13
2.31966e-14
1.01182e-14
3.3062e-13
4.83744e-13
1.89983e-13
2.5888e-12
1.34983e-12
4.12861e-12
3.40801e-13
4.97629e-12
4.31168e-11
5.87355e-11
1.85573e-13
1.01182e-14
8.2655e-14
1.09233e-13
1.89983e-13
5.84568e-13
3.37458e-13
1.11201e-12
8.52002e-14
1.49959e-12
4.63932e-14
1.01182e-14
2.06637e-14
1.56046e-14
1.89983e-13
8.35097e-14
8.43644e-14
3.57857e-13
2.13e-14
4.50637e-13
2.31966e-14
1.01182e-14
3.3062e-13
4.83744e-13
1.89983e-13
2.5888e-12
1.34983e-12
4.12861e-12
3.40801e-13
4.97629e-12
4.31168e-11
5.70396e-11
1.85573e-13
1.01182e-14
8.2655e-14
1.09233e-13
1.89983e-13
5.84568e-13
3.37458e-13
1.11201e-12
8.52002e-14
1.49959e-12
4.63932e-14
1.01182e-14
2.06637e-14
1.56046e-14
1.89983e-13
8.35097e-14
8.43644e-14
3.57857e-13
2.13e-14
4.50637e-13
2.31966e-14
1.01182e-14
3.3062e-13
4.83744e-13
1.89983e-13
2.5888e-12
1.34983e-12
4.12861e-12
3.40801e-13
4.97629e-12
4.42953e-11
6.37582e-11
1.85573e-13
1.01182e-14
8.2655e-14
1.09233e-13
1.89983e-13
5.84568e-13
3.37458e-13
1.11201e-12
8.52002e-14
1.49959e-12
4.63932e-14
1.01182e-14
2.06637e-14
1.56046e-14
1.89983e-13
8.35097e-14
8.43644e-14
3.57857e-13
2.13e-14
4.50637e-13
2.31966e-14
1.01182e-14
3.3062e-13
4.83744e-13
1.89983e-13
2.5888e-12
1.34983e-12
4.12861e-12
3.40801e-13
4.97629e-12
4.42953e-11
6.38133e-11
1.85573e-13
1.01182e-14
8.2655e-14
1.09233e-13
1.89983e-13
5.84568e-13
3.37458e-13
1.11201e-12
8.52002e-14
1.49959e-12
4.63932e-14
1.01182e-14
2.06637e-14
1.56046e-14
1.89983e-13
8.35097e-14
8.43644e-14
3.57857e-13
2.13e-14
4.50637e-13
2.31966e-14
1.01182e-14
3.3062e-13
4.83744e-13
1.89983e-13
2.5888e-12
1.34983e-12
4.12861e-12
3.40801e-13
4.97629e-12
4.42953e-11
6.12793e-11
1.85573e-13
1.01182e-14
8.2655e-14
1.09233e-13
1.89983e-13
5.84568e-13
3.37458e-13
1.11201e-12
8.52002e-14
1.49959e-12
4.63932e-14
1.01182e-14
2.06637e-14
1.56046e-14
1.89983e-13
8.35097e-14
8.43644e-14
3.57857e-13
2.13e-14
4.50637e-13
2.31966e-14
1.01182e-14
3.3062e-13
4.83744e-13
1.89983e-13
2.5888e-12
1.34983e-12
4.12861e-12
3.40801e-13
4.97629e-12
4.42953e-11
6.20839e-11
1.85573e-13
1.01182e-14
8.2655e-14
1.09233e-13
1.89983e-13
5.84568e-13
3.37458e-13
1.11201e-12
8.52002e-14
1.49959e-12
4.63932e-14
1.01182e-14
2.06637e-14
1.56046e-14
1.89983e-13
8.35097e-14
8.43644e-14
3.57857e-13
2.13e-14
4.50637e-13
2.31966e-14
1.01182e-14
3.3062e-13
4.83744e-13
1.89983e-13
2.5888e-12
1.34983e-12
4.12861e-12
3.40801e-13
4.97629e-12
4.42953e-11
5.96323e-11
1.85573e-13
1.01182e-14
8.2655e-14
1.09233e-13
1.89983e-13
5.84568e-13
3.37458e-13
1.11201e-12
8.52002e-14
1.49959e-12
4.63932e-14
1.01182e-14
2.06637e-14
1.56046e-14
1.89983e-13
8.35097e-14
8.43644e-14
3.57857e-13
2.13e-14
4.50637e-13
2.31966e-14
1.01182e-14
3.3062e-13
4.83744e-13
1.89983e-13
2.5888e-12
1.34983e-12
4.12861e-12
3.40801e-13
4.97629e-12
4.42953e-11
6.24771e-11
1.85573e-13
1.01182e-14
8.2655e-14
1.09233e-13
1.89983e-13
5.84568e-13
3.37458e-13
1.11201e-12
8.52002e-14
1.49959e-12
4.63932e-14
1.01182e-14
2.06637e-14
1.56046e-14
1.89983e-13
8.35097e-14
8.43644e-14
3.57857e-13
2.13e-14
4.50637e-13
2.31966e-14
1.01182e-14
3.3062e-13
4.83744e-13
1.89983e-13
2.5888e-12
1.34983e-12
4.12861e-12
3.40801e-13
4.97629e-12
4.42953e-11
6.37936e-11
1.85573e-13
1.01182e-14
8.2655e-14
1.09233e-13
1.89983e-13
5.84568e-13
3.37458e-13
1.11201e-12
8.52002e-14
1.49959e-12
4.63932e-14
1.01182e-14
2.06637e-14
1.56046e-14
1.89983e-13
8.35097e-14
8.43644e-14
3.57857e-13
2.13e-14
4.50637e-13
2.31966e-14
1.01182e-14
3.3062e-13
4.83744e-13
1.89983e-13
2.5888e-12
1.34983e-12
4.12861e-12
3.40801e-13
4.97629e-12
4.42953e-11
6.21188e-11
1.85573e-13
1.01182e-14
8.2655e-14
1.09233e-13
1.89983e-13
5.84568e-13
3.37458e-13
1.11201e-12
8.52002e-14
1.49959e-12
4.63932e-14
1.01182e-14
2.06637e-14
1.56046e-14
1.89983e-13
8.35097e-14
8.43644e-14
3.57857e-13
2.13e-14
4.50637e-13
2.31966e-14
1.01182e-14
3.3062e-13
4.83744e-13
1.89983e-13
2.5888e-12
1.34983e-12
4.12861e-12
3.40801e-13
4.97629e-12
4.42953e-11
6.3451e-11
1.85573e-13
1.01182e-14
8.2655e-14
1.09233e-13
1.89983e-13
5.84568e-13
3.37458e-13
1.11201e-12
8.52002e-14
1.49959e-12
4.63932e-14
1.01182e-14
2.06637e-14
1.56046e-14
1.89983e-13
8.35097e-14
8.43644e-14
3.57857e-13
2.13e-14
4.50637e-13
2.31966e-14
1.01182e-14
3.3062e-13
4.83744e-13
1.89983e-13
2.5888e-12
1.34983e-12
4.12861e-12
3.40801e-13
4.97629e-12
4.42953e-11
5.93264e-11
1.85573e-13
1.01182e-14
8.2655e-14
1.09233e-13
1.89983e-13
5.84568e-13
3.37458e-13
1.11201e-12
8.52002e-14
1.49959e-12
4.63932e-14
1.01182e-14
2.06637e-14
1.56046e-14
1.89983e-13
8.35097e-14
8.43644e-14
3.57857e-13
2.13e-14
4.50637e-13
2.31966e-14
1.01182e-14
3.3062e-13
4.83744e-13
1.89983e-13
2.5888e-12
1.34983e-12
4.12861e-12
3.40801e-13
4.97629e-12
4.42953e-11
6.37009e-11
1.85573e-13
1.01182e-14
8.2655e-14
1.09233e-13
1.89983e-13
5.84568e-13
3.37458e-13
1.11201e-12
8.52002e-14
1.49959e-12
4.63932e-14
1.01182e-14
2.06637e-14
1.56046e-14
1.89983e-13
8.35097e-14
8.43644e-14
3.57857e-13
2.13e-14
4.50637e-13
2.31966e-14
1.01182e-14
3.3062e-13
4.83744e-13
1.89983e-13
2.5888e-12
1.34983e-12
4.12861e-12
3.40801e-13
4.97629e-12
4.42953e-11
6.19771e-11
1.85573e-13
1.01182e-14
8.2655e-14
1.09233e-13
1.89983e-13
5.84568e-13
3.37458e-13
1.11201e-12
8.52002e-14
1.49959e-12
4.63932e-14
1.01182e-14
2.06637e-14
1.56046e-14
1.89983e-13
8.35097e-14
8.43644e-14
3.57857e-13
2.13e-14
4.50637e-13
2.31966e-14
1.01182e-14
3.3062e-13
4.83744e-13
1.89983e-13
2.5888e-12
1.34983e-12
4.12861e-12
3.40801e-13
4.97629e-12
4.42953e-11
6.35566e-11
1.85573e-13
1.01182e-14
8.2655e-14
1.09233e-13
1.89983e-13
5.84568e-13
3.37458e-13
1.11201e-12
8.52002e-14
1.49959e-12
4.63932e-14
1.01182e-14
2.06637e-14
1.56046e-14
1.89983e-13
8.35097e-14
8.43644e-14
3.57857e-13
2.13e-14
4.50637e-13
2.31966e-14
1.01182e-14
3.3062e-13
4.83744e-13
1.89983e-13
2.5888e-12
1.34983e-12
4.12861e-12
3.40801e-13
4.97629e-12
4.42953e-11
5.96099e-11
1.85573e-13
1.01182e-14
8.2655e-14
1.09233e-13
1.89983e-13
5.84568e-13
3.37458e-13
1.11201e-12
8.52002e-14
1.49959e-12
4.63932e-14
1.01182e-14
2.06637e-14
1.56046e-14
1.89983e-13
8.35097e-14
8.43644e-14
3.57857e-13
2.13e-14
4.50637e-13
2.31966e-14
1.01182e-14
3.3062e-13
4.83744e-13
1.89983e-13
2.5888e-12
1.34983e-12
4.12861e-12
3.40801e-13
4.97629e-12
4.42953e-11
6.36749e-11
1.85573e-13
1.01182e-14
8.2655e-14
1.09233e-13
1.89983e-13
5.84568e-13
3.37458e-13
1.11201e-12
8.52002e-14
1.49959e-12
4.63932e-14
1.01182e-14
2.06637e-14
1.56046e-14
1.89983e-13
8.35097e-14
8.43644e-14
3.57857e-13
2.13e-14
4.50637e-13
2.31966e-14
1.01182e-14
3.3062e-13
4.83744e-13
1.89983e-13
2.5888e-12
1.34983e-12
4.12861e-12
3.40801e-13
4.97629e-12
4.42953e-11
6.21608e-11
1.85573e-13
1.01182e-14
8.2655e-14
1.09233e-13
1.89983e-13
5.84568e-13
3.37458e-13
1.11201e-12
8.52002e-14
1.49959e-12
4.63932e-14
1.01182e-14
2.06637e-14
1.56046e-14
1.89983e-13
8.35097e-14
8.43644e-14
3.57857e-13
2.13e-14
4.50637e-13
2.31966e-14
1.01182e-14
3.3062e-13
4.83744e-13
1.89983e-13
2.5888e-12
1.34983e-12
4.12861e-12
3.40801e-13
4.97629e-12
4.54738e-11
6.43862e-11
1.85573e-13
1.01182e-14
8.2655e-14
1.09233e-13
1.89983e-13
5.84568e-13
3.37458e-13
1.11201e-12
8.52002e-14
1.49959e-12
4.63932e-14
1.01182e-14
2.06637e-14
1.56046e-14
1.89983e-13
8.35097e-14
8.43644e-14
3.57857e-13
2.13e-14
4.50637e-13
2.31966e-14
1.01182e-14
3.3062e-13
4.83744e-13
1.89983e-13
2.5888e-12
1.34983e-12
4.12861e-12
3.40801e-13
4.97629e-12
4.54738e-11
6.45367e-11
1.85573e-13
1.01182e-14
8.2655e-14
1.09233e-13
1.89983e-13
5.84568e-13
3.37458e-13
1.11201e-12
8.52002e-14
1.49959e-12
4.63932e-14
1.01182e-14
2.06637e-14
1.56046e-14
1.89983e-13
8.35097e-14
8.43644e-14
3.57857e-13
2.13e-14
4.50637e-13
2.31966e-14
1.01182e-14
3.3062e-13
4.83744e-13
1.89983e-13
2.5888e-12
1.34983e-12
4.12861e-12
3.40801e-13
4.97629e-12
4.54738e-11
6.15555e-11
1.85573e-13
1.01182e-14
8.2655e-14
1.09233e-13
1.89983e-13
5.84568e-13
3.37458e-13
1.11201e-12
8.52002e-14
1.49959e-12
4.63932e-14
1.01182e-14
2.06637e-14
1.56046e-14
1.89983e-13
8.35097e-14
8.43644e-14
3.57857e-13
2.13e-14
4.50637e-13
2.31966e-14
1.01182e-14
3.3062e-13
4.83744e-13
1.89983e-13
2.5888e-12
1.34983e-12
4.12861e-12
3.40801e-13
4.97629e-12
4.54738e-11
6.24424e-11
1.85573e-13
1.01182e-14
8.2655e-14
1.09233e-13
1.89983e-13
5.84568e-13
3.37458e-13
1.11201e-12
8.52002e-14
1.49959e-12
4.63932e-14
1.01182e-14
2.06637e-14
1.56046e-14
1.89983e-13
8.35097e-14
8.43644e-14
3.57857e-13
2.13e-14
4.50637e-13
2.31966e-14
1.01182e-14
3.3062e-13
4.83744e-13
1.89983e-13
2.5888e-12
1.34983e-12
4.12861e-12
3.40801e-13
4.97629e-12
4.54738e-11
6.05435e-11
1.85573e-13
1.01182e-14
8.2655e-14
1.09233e-13
1.89983e-13
5.84568e-13
3.37458e-13
1.11201e-12
8.52002e-14
1.49959e-12
4.63932e-14
1.01182e-14
2.06637e-14
1.56046e-14
1.89983e-13
8.35097e-14
8.43644e-14
3.57857e-13
2.13e-14
4.50637e-13
2.31966e-14
1.01182e-14
3.3062e-13
4.83744e-13
1.89983e-13
2.5888e-12
1.34983e-12
4.12861e-12
3.40801e-13
4.97629e-12
4.54738e-11
6.31373e-11
1.85573e-13
1.01182e-14
8.2655e-14
1.09233e-13
1.89983e-13
5.84568e-13
3.37458e-13
1.11201e-12
8.52002e-14
1.49959e-12
4.63932e-14
1.01182e-14
2.06637e-14
1.56046e-14
1.89983e-13
8.35097e-14
8.43644e-14
3.57857e-13
2.13e-14
4.50637e-13
2.31966e-14
1.01182e-14
3.3062e-13
4.83744e-13
1.89983e-13
2.5888e-12
1.34983e-12
4.12861e-12
3.40801e-13
4.97629e-12
4.54738e-11
6.4662e-11
1.85573e-13
1.01182e-14
8.2655e-14
1.09233e-13
1.89983e-13
5.84568e-13
3.37458e-13
1.11201e-12
8.52002e-14
1.49959e-12
4.63932e-14
1.01182e-14
2.06637e-14
1.56046e-14
1.89983e-13
8.35097e-14
8.43644e-14
3.57857e-13
2.13e-14
4.50637e-13
2.31966e-14
1.01182e-14
3.3062e-13
4.83744e-13
1.89983e-13
2.5888e-12
1.34983e-12
4.12861e-12
3.40801e-13
4.97629e-12
4.54738e-11
6.23517e-11
1.85573e-13
1.01182e-14
8.2655e-14
1.09233e-13
1.89983e-13
5.84568e-13
3.37458e-13
1.11201e-12
8.52002e-14
1.49959e-12
4.63932e-14
1.01182e-14
2.06637e-14
1.56046e-14
1.89983e-13
8.35097e-14
8.43644e-14
3.57857e-13
2.13e-14
4.50637e-13
2.31966e-14
1.01182e-14
3.3062e-13
4.83744e-13
1.89983e-13
2.5888e-12
1.34983e-12
4.12861e-12
3.40801e-13
4.97629e-12
4.54738e-11
6.3794e-11
1.85573e-13
1.01182e-14
8.2655e-14
1.09233e-13
1.89983e-13
5.84568e-13
3.37458e-13
1.11201e-12
8.52002e-14
1.49959e-12
4.63932e-14
1.01182e-14
2.06637e-14
1.56046e-14
1.89983e-13
8.35097e-14
8.43644e-14
3.57857e-13
2.13e-14
4.50637e-13
2.31966e-14
1.01182e-14
3.3062e-13
4.83744e-13
1.89983e-13
2.5888e-12
1.34983e-12
4.12861e-12
3.40801e-13
4.97629e-12
4.54738e-11
5.97324e-11
1.85573e-13
1.01182e-14
8.2655e-14
1.09233e-13
1.89983e-13
5.84568e-13
3.37458e-13
1.11201e-12
8.52002e-14
1.49959e-12
4.63932e-14
1.01182e-14
2.06637e-14
1.56046e-14
1.89983e-13
8.35097e-14
8.43644e-14
3.57857e-13
2.13e-14
4.50637e-13
2.31966e-14
1.01182e-14
3.3062e-13
4.83744e-13
1.89983e-13
2.5888e-12
1.34983e-12
4.12861e-12
3.40801e-13
4.97629e-12
4.54738e-11
6.44569e-11
1.85573e-13
1.01182e-14
8.2655e-14
1.09233e-13
1.89983e-13
5.84568e-13
3.37458e-13
1.11201e-12
8.52002e-14
1.49959e-12
4.63932e-14
1.01182e-14
2.06637e-14
1.56046e-14
1.89983e-13
8.35097e-14
8.43644e-14
3.57857e-13
2.13e-14
4.50637e-13
2.31966e-14
1.01182e-14
3.3062e-13
4.83744e-13
1.89983e-13
2.5888e-12
1.34983e-12
4.12861e-12
3.40801e-13
4.97629e-12
4.54738e-11
6.22463e-11
1.85573e-13
1.01182e-14
8.2655e-14
1.09233e-13
1.89983e-13
5.84568e-13
3.37458e-13
1.11201e-12
8.52002e-14
1.49959e-12
4.63932e-14
1.01182e-14
2.06637e-14
1.56046e-14
1.89983e-13
8.35097e-14
8.43644e-14
3.57857e-13
2.13e-14
4.50637e-13
2.31966e-14
1.01182e-14
3.3062e-13
4.83744e-13
1.89983e-13
2.5888e-12
1.34983e-12
4.12861e-12
3.40801e-13
4.97629e-12
4.54738e-11
6.38184e-11
1.85573e-13
1.01182e-14
8.2655e-14
1.09233e-13
1.89983e-13
5.84568e-13
3.37458e-13
1.11201e-12
8.52002e-14
1.49959e-12
4.63932e-14
1.01182e-14
2.06637e-14
1.56046e-14
1.89983e-13
8.35097e-14
8.43644e-14
3.57857e-13
2.13e-14
4.50637e-13
2.31966e-14
1.01182e-14
3.3062e-13
4.83744e-13
1.89983e-13
2.5888e-12
1.34983e-12
4.12861e-12
3.40801e-13
4.97629e-12
4.54738e-11
6.00213e-11
1.85573e-13
1.01182e-14
8.2655e-14
1.09233e-13
1.89983e-13
5.84568e-13
3.37458e-13
1.11201e-12
8.52002e-14
1.49959e-12
4.63932e-14
1.01182e-14
2.06637e-14
1.56046e-14
1.89983e-13
8.35097e-14
8.43644e-14
3.57857e-13
2.13e-14
4.50637e-13
2.31966e-14
1.01182e-14
3.3062e-13
4.83744e-13
1.89983e-13
2.5888e-12
1.34983e-12
4.12861e-12
3.40801e-13
4.97629e-12
4.54738e-11
6.43228e-11
1.85573e-13
1.01182e-14
8.2655e-14
1.09233e-13
1.89983e-13
5.84568e-13
3.37458e-13
1.11201e-12
8.52002e-14
1.49959e-12
4.63932e-14
1.01182e-14
2.06637e-14
1.56046e-14
1.89983e-13
8.35097e-14
8.43644e-14
3.57857e-13
2.13e-14
4.50637e-13
2.31966e-14
1.01182e-14
3.3062e-13
4.83744e-13
1.89983e-13
2.5888e-12
1.34983e-12
4.12861e-12
3.40801e-13
4.97629e-12
4.54738e-11
6.20677e-11
1.85573e-13
1.01182e-14
8.2655e-14
1.09233e-13
1.89983e-13
5.84568e-13
3.37458e-13
1.11201e-12
8.52002e-14
1.49959e-12
4.63932e-14
1.01182e-14
2.06637e-14
1.56046e-14
1.89983e-13
8.35097e-14
8.43644e-14
3.57857e-13
2.13e-14
4.50637e-13
2.31966e-14
1.01182e-14
3.3062e-13
4.83744e-13
1.89983e-13
2.5888e-12
1.34983e-12
4.12861e-12
3.40801e-13
4.97629e-12
4.66523e-11
6.59563e-11
1.85573e-13
1.01182e-14
8.2655e-14
1.09233e-13
1.89983e-13
5.84568e-13
3.37458e-13
1.11201e-12
8.52002e-14
1.49959e-12
4.63932e-14
1.01182e-14
2.06637e-14
1.56046e-14
1.89983e-13
8.35097e-14
8.43644e-14
3.57857e-13
2.13e-14
4.50637e-13
2.31966e-14
1.01182e-14
3.3062e-13
4.83744e-13
1.89983e-13
2.5888e-12
1.34983e-12
4.12861e-12
3.40801e-13
4.97629e-12
4.66523e-11
6.50885e-11
1.85573e-13
1.01182e-14
8.2655e-14
1.09233e-13
1.89983e-13
5.84568e-13
3.37458e-13
1.11201e-12
8.52002e-14
1.49959e-12
4.63932e-14
1.01182e-14
2.06637e-14
1.56046e-14
1.89983e-13
8.35097e-14
8.43644e-14
3.57857e-13
2.13e-14
4.50637e-13
2.31966e-14
1.01182e-14
3.3062e-13
4.83744e-13
1.89983e-13
2.5888e-12
1.34983e-12
4.12861e-12
3.40801e-13
4.97629e-12
4.66523e-11
6.43248e-11
1.85573e-13
1.01182e-14
8.2655e-14
1.09233e-13
1.89983e-13
5.84568e-13
3.37458e-13
1.11201e-12
8.52002e-14
1.49959e-12
4.63932e-14
1.01182e-14
2.06637e-14
1.56046e-14
1.89983e-13
8.35097e-14
8.43644e-14
3.57857e-13
2.13e-14
4.50637e-13
2.31966e-14
1.01182e-14
3.3062e-13
4.83744e-13
1.89983e-13
2.5888e-12
1.34983e-12
4.12861e-12
3.40801e-13
4.97629e-12
4.66523e-11
6.32588e-11
1.85573e-13
1.01182e-14
8.2655e-14
1.09233e-13
1.89983e-13
5.84568e-13
3.37458e-13
1.11201e-12
8.52002e-14
1.49959e-12
4.63932e-14
1.01182e-14
2.06637e-14
1.56046e-14
1.89983e-13
8.35097e-14
8.43644e-14
3.57857e-13
2.13e-14
4.50637e-13
2.31966e-14
1.01182e-14
3.3062e-13
4.83744e-13
1.89983e-13
2.5888e-12
1.34983e-12
4.12861e-12
3.40801e-13
4.97629e-12
4.66523e-11
6.49997e-11
1.85573e-13
1.01182e-14
8.2655e-14
1.09233e-13
1.89983e-13
5.84568e-13
3.37458e-13
1.11201e-12
8.52002e-14
1.49959e-12
4.63932e-14
1.01182e-14
2.06637e-14
1.56046e-14
1.89983e-13
8.35097e-14
8.43644e-14
3.57857e-13
2.13e-14
4.50637e-13
2.31966e-14
1.01182e-14
3.3062e-13
4.83744e-13
1.89983e-13
2.5888e-12
1.34983e-12
4.12861e-12
3.40801e-13
4.97629e-12
4.66523e-11
6.42263e-11
1.85573e-13
1.01182e-14
8.2655e-14
1.09233e-13
1.89983e-13
5.84568e-13
3.37458e-13
1.11201e-12
8.52002e-14
1.49959e-12
4.63932e-14
1.01182e-14
2.06637e-14
1.56046e-14
1.89983e-13
8.35097e-14
8.43644e-14
3.57857e-13
2.13e-14
4.50637e-13
2.31966e-14
1.01182e-14
3.3062e-13
4.83744e-13
1.89983e-13
2.5888e-12
1.34983e-12
4.12861e-12
3.40801e-13
4.97629e-12
4.66523e-11
6.34249e-11
1.85573e-13
1.01182e-14
8.2655e-14
1.09233e-13
1.89983e-13
5.84568e-13
3.37458e-13
1.11201e-12
8.52002e-14
1.49959e-12
4.63932e-14
1.01182e-14
2.06637e-14
1.56046e-14
1.89983e-13
8.35097e-14
8.43644e-14
3.57857e-13
2.13e-14
4.50637e-13
2.31966e-14
1.01182e-14
3.3062e-13
4.83744e-13
1.89983e-13
2.5888e-12
1.34983e-12
4.12861e-12
3.40801e-13
4.97629e-12
4.66523e-11
6.29245e-11
1.85573e-13
1.01182e-14
8.2655e-14
1.09233e-13
1.89983e-13
5.84568e-13
3.37458e-13
1.11201e-12
8.52002e-14
1.49959e-12
4.63932e-14
1.01182e-14
2.06637e-14
1.56046e-14
1.89983e-13
8.35097e-14
8.43644e-14
3.57857e-13
2.13e-14
4.50637e-13
2.31966e-14
1.01182e-14
3.3062e-13
4.83744e-13
1.89983e-13
2.5888e-12
1.34983e-12
4.12861e-12
3.40801e-13
4.97629e-12
4.66523e-11
6.51247e-11
1.85573e-13
1.01182e-14
8.2655e-14
1.09233e-13
1.89983e-13
5.84568e-13
3.37458e-13
1.11201e-12
8.52002e-14
1.49959e-12
4.63932e-14
1.01182e-14
2.06637e-14
1.56046e-14
1.89983e-13
8.35097e-14
8.43644e-14
3.57857e-13
2.13e-14
4.50637e-13
2.31966e-14
1.01182e-14
3.3062e-13
4.83744e-13
1.89983e-13
2.5888e-12
1.34983e-12
4.12861e-12
3.40801e-13
4.97629e-12
4.66523e-11
6.42258e-11
1.85573e-13
1.01182e-14
8.2655e-14
1.09233e-13
1.89983e-13
5.84568e-13
3.37458e-13
1.11201e-12
8.52002e-14
1.49959e-12
4.63932e-14
1.01182e-14
2.06637e-14
1.56046e-14
1.89983e-13
8.35097e-14
8.43644e-14
3.57857e-13
2.13e-14
4.50637e-13
2.31966e-14
1.01182e-14
3.3062e-13
4.83744e-13
1.89983e-13
2.5888e-12
1.34983e-12
4.12861e-12
3.40801e-13
4.97629e-12
4.66523e-11
6.54963e-11
1.85573e-13
1.01182e-14
8.2655e-14
1.09233e-13
1.89983e-13
5.84568e-13
3.37458e-13
1.11201e-12
8.52002e-14
1.49959e-12
4.63932e-14
1.01182e-14
2.06637e-14
1.56046e-14
1.89983e-13
8.35097e-14
8.43644e-14
3.57857e-13
2.13e-14
4.50637e-13
2.31966e-14
1.01182e-14
3.3062e-13
4.83744e-13
1.89983e-13
2.5888e-12
1.34983e-12
4.12861e-12
3.40801e-13
4.97629e-12
4.66523e-11
6.34601e-11
1.85573e-13
1.01182e-14
8.2655e-14
1.09233e-13
1.89983e-13
5.84568e-13
3.37458e-13
1.11201e-12
8.52002e-14
1.49959e-12
4.63932e-14
1.01182e-14
2.06637e-14
1.56046e-14
1.89983e-13
8.35097e-14
8.43644e-14
3.57857e-13
2.13e-14
4.50637e-13
2.31966e-14
1.01182e-14
3.3062e-13
4.83744e-13
1.89983e-13
2.5888e-12
1.34983e-12
4.12861e-12
3.40801e-13
4.97629e-12
4.66523e-11
6.46659e-11
1.85573e-13
1.01182e-14
8.2655e-14
1.09233e-13
1.89983e-13
5.84568e-13
3.37458e-13
1.11201e-12
8.52002e-14
1.49959e-12
4.63932e-14
1.01182e-14
2.06637e-14
1.56046e-14
1.89983e-13
8.35097e-14
8.43644e-14
3.57857e-13
2.13e-14
4.50637e-13
2.31966e-14
1.01182e-14
3.3062e-13
4.83744e-13
1.89983e-13
2.5888e-12
1.34983e-12
4.12861e-12
3.40801e-13
4.97629e-12
4.66523e-11
6.38022e-11
1.85573e-13
1.01182e-14
8.2655e-14
1.09233e-13
1.89983e-13
5.84568e-13
3.37458e-13
1.11201e-12
8.52002e-14
1.49959e-12
4.63932e-14
1.01182e-14
2.06637e-14
1.56046e-14
1.89983e-13
8.35097e-14
8.43644e-14
3.57857e-13
2.13e-14
4.50637e-13
2.31966e-14
1.01182e-14
3.3062e-13
4.83744e-13
1.89983e-13
2.5888e-12
1.34983e-12
4.12861e-12
3.40801e-13
4.97629e-12
4.66523e-11
6.50421e-11
1.85573e-13
1.01182e-14
8.2655e-14
1.09233e-13
1.89983e-13
5.84568e-13
3.37458e-13
1.11201e-12
8.52002e-14
1.49959e-12
4.63932e-14
1.01182e-14
2.06637e-14
1.56046e-14
1.89983e-13
8.35097e-14
8.43644e-14
3.57857e-13
2.13e-14
4.50637e-13
2.31966e-14
1.01182e-14
3.3062e-13
4.83744e-13
1.89983e-13
2.5888e-12
1.34983e-12
4.12861e-12
3.40801e-13
4.97629e-12
4.66523e-11
6.32555e-11
