BEGIN Configuration File: /Users/yash/Projects/wsc-noc-dvfs/final_paper_sims/flatfly/flatfly_queue_pid_inj0.2_cap0.6/config.cfg

// Final Paper Simulation Config
// Topology: flatfly, Policy: queue_pid
// Injection Rate: 0.2, Power Cap: 0.6W

// VC Configuration
read_request_begin_vc  = 0;
read_request_end_vc    = 5;
write_reply_begin_vc   = 2;
write_reply_end_vc     = 7;
read_reply_begin_vc    = 8;
read_reply_end_vc      = 12;
write_request_begin_vc = 10;
write_request_end_vc   = 15;
num_vcs     = 16;
vc_buf_size = 8;
wait_for_tail_credit = 0;
vc_allocator = max_size;
sw_allocator = max_size;
alloc_iters  = 2;
credit_delay   = 2;
routing_delay  = 0;
vc_alloc_delay = 1;
sw_alloc_delay = 1;
st_final_delay = 1;
input_speedup     = 1;
output_speedup    = 1;
internal_speedup  = 1.0;

// Detailed simulation settings (longer runs for accuracy)
sim_type = latency;
warmup_periods = 3;
sim_count = 1;
sample_period  = 10000;
max_samples = 15;
use_read_write = 0;
batch_size = 10000;
latency_thres = 5000;
packet_size = 1;

// Topology

topology = flatfly;
subnets = 1;
c  = 4;
k  = 4;
n  = 2;
x  = 4;
y  = 4;
xr = 2;
yr = 2;
limit = 64;
routing_function = ran_min;


// Traffic - 2 classes with different priorities
// Using uniform traffic with configurable injection rate
// Split injection: 30% control (class 0), 70% batch (class 1)
traffic = uniform;
injection_rate = {0.06,0.13999999999999999};

// 2-class traffic for SLO-aware policies
classes = 2;
class_priority = {1,0};
class_slo = {50,-1};
priority_policy = static_class;

// Orion power model
use_orion = 1;
Vdd = 1.0;
Orion_tr = 0.2;
Orion_Freq = 1e9;
Orion_inport = 5;
Orion_outport = 5;
Orion_bitwidth = 128;
Orion_vc_class = 1;
Orion_IsSharedBuffIn = 0;
Orion_IsSharedBuffOut = 0;
Orion_crossbar_model = 0;
Orion_crsbar_degree = 4;
Orion_Cxbar_Cxpoint = 0;
Orion_trans_type = 0;
Orion_IsInBuff = 1;
Orion_out_buf_size = 0;
Orion_IsOutBuff = 0;
Orion_buff_type = 0;
Orion_in_arb_model = 1;
Orion_out_arb_model = 1;
Orion_allocator_model = 1;
Orion_in_vc_arb_model = 1;
Orion_out_vc_arb_model = 1;
wire_length = 1.0;

// Power cap
power_cap = 0.6;

// DVFS base settings
dvfs_epoch = 10000;
dvfs_log_interval = 10000;
dvfs_freqs = 1.0;
dvfs_voltages = 1.0;
router_domains = 0;

// Policy-specific settings

dvfs_policy = queue_pid;
dvfs_min_scale = 0.5;
dvfs_max_scale = 1.0;
queue_pid_target = 0.02;
queue_pid_kp = 0.5;
queue_pid_ki = 0.01;
queue_pid_kd = 0.1;
queue_pid_per_router = 1;
queue_pid_headroom_margin = 0.05;
control_class_id = 0;
control_slo_cycles = 50.0;


// Output files
latency_csv = latency.csv;
stall_csv = stalls.csv;
throughput_csv = throughput.csv;
summary_csv = summary.csv;
energy_csv = energy.csv;
epoch_csv = epoch.csv;
dvfs_log = power_log;
output_dir = /Users/yash/Projects/wsc-noc-dvfs/final_paper_sims/flatfly;
run_name = flatfly_queue_pid_inj0.2_cap0.6;

END Configuration File: /Users/yash/Projects/wsc-noc-dvfs/final_paper_sims/flatfly/flatfly_queue_pid_inj0.2_cap0.6/config.cfg
 Flat Bufferfly 
 k = 4 n = 2 c = 4
 each switch - total radix =  10
 # of switches = 16
 # of channels = 96
 # of nodes ( size of network ) = 64
Class 0:
Packet latency average = 15.8464
	minimum = 6
	maximum = 29
Network latency average = 15.8464
	minimum = 6
	maximum = 29
Slowest packet = 8343
Flit latency average = 15.8464
	minimum = 6
	maximum = 29
Slowest flit = 8343
Fragmentation average = 0
	minimum = 0
	maximum = 0
Injected packet rate average = 0.0601516
	minimum = 0.0557 (at node 14)
	maximum = 0.0651 (at node 6)
Accepted packet rate average = 0.06005
	minimum = 0.0548 (at node 26)
	maximum = 0.0679 (at node 56)
Injected flit rate average = 0.0601516
	minimum = 0.0557 (at node 14)
	maximum = 0.0651 (at node 6)
Accepted flit rate average= 0.06005
	minimum = 0.0548 (at node 26)
	maximum = 0.0679 (at node 56)
Injected packet length average = 1
Accepted packet length average = 1
Total in-flight flits = 65 (0 measured)
Buffer busy stall rate = 0
Buffer conflict stall rate = 0
Buffer full stall rate = 0
Buffer reserved stall rate = 6.25e-06
Crossbar conflict stall rate = 0.07235
Class 1:
Packet latency average = 15.9106
	minimum = 6
	maximum = 31
Network latency average = 15.8341
	minimum = 6
	maximum = 30
Slowest packet = 8344
Flit latency average = 15.8341
	minimum = 6
	maximum = 30
Slowest flit = 8395
Fragmentation average = 0
	minimum = 0
	maximum = 0
Injected packet rate average = 0.139984
	minimum = 0.1312 (at node 37)
	maximum = 0.1494 (at node 0)
Accepted packet rate average = 0.139766
	minimum = 0.1313 (at node 63)
	maximum = 0.1487 (at node 4)
Injected flit rate average = 0.139984
	minimum = 0.1312 (at node 37)
	maximum = 0.1494 (at node 0)
Accepted flit rate average= 0.139766
	minimum = 0.1313 (at node 63)
	maximum = 0.1487 (at node 4)
Injected packet length average = 1
Accepted packet length average = 1
Total in-flight flits = 141 (0 measured)
Buffer busy stall rate = 0
Buffer conflict stall rate = 0
Buffer full stall rate = 0
Buffer reserved stall rate = 0
Crossbar conflict stall rate = 0.165644
latency change    = 1
throughput change = 1
latency change    = 1
throughput change = 1
DVFS epoch t=10000 total_power=0.671601 headroom=-0.0716015 avg_power=0.671601 domains{0:freq=1,power=0.671601} routers{0:freq=1,power=0.0419807, 1:freq=1,power=0.0419992, 2:freq=1,power=0.0419789, 3:freq=1,power=0.0419767, 4:freq=1,power=0.0419275, 5:freq=1,power=0.0419831, 6:freq=1,power=0.041981, 7:freq=1,power=0.041978, 8:freq=1,power=0.0419359, 9:freq=1,power=0.041968, 10:freq=1,power=0.0419371, 11:freq=1,power=0.0419523, 12:freq=1,power=0.0419781, 13:freq=1,power=0.0420316, 14:freq=1,power=0.0419938, 15:freq=1,power=0.0419997}
QUEUE_PID_DIFF: epoch=1 max_occ=0.00234375 avg_occ=0.00161133 budget=0.820996 headroom=-0.0716015
Class 0:
Packet latency average = 16.5769
	minimum = 6
	maximum = 34
Network latency average = 16.5769
	minimum = 6
	maximum = 34
Slowest packet = 143760
Flit latency average = 16.5769
	minimum = 6
	maximum = 34
Slowest flit = 143760
Fragmentation average = 0
	minimum = 0
	maximum = 0
Injected packet rate average = 0.0601102
	minimum = 0.0566 (at node 16)
	maximum = 0.0629 (at node 18)
Accepted packet rate average = 0.0600625
	minimum = 0.0564 (at node 30)
	maximum = 0.06455 (at node 63)
Injected flit rate average = 0.0601102
	minimum = 0.0566 (at node 16)
	maximum = 0.0629 (at node 18)
Accepted flit rate average= 0.0600625
	minimum = 0.0564 (at node 30)
	maximum = 0.06455 (at node 63)
Injected packet length average = 1
Accepted packet length average = 1
Total in-flight flits = 61 (0 measured)
Buffer busy stall rate = 0
Buffer conflict stall rate = 0
Buffer full stall rate = 0
Buffer reserved stall rate = 3.125e-06
Crossbar conflict stall rate = 0.0828656
Class 1:
Packet latency average = 16.6563
	minimum = 6
	maximum = 36
Network latency average = 16.5807
	minimum = 6
	maximum = 36
Slowest packet = 214642
Flit latency average = 16.5807
	minimum = 6
	maximum = 36
Slowest flit = 214642
Fragmentation average = 0
	minimum = 0
	maximum = 0
Injected packet rate average = 0.139824
	minimum = 0.13365 (at node 37)
	maximum = 0.1456 (at node 30)
Accepted packet rate average = 0.139722
	minimum = 0.13525 (at node 32)
	maximum = 0.14425 (at node 53)
Injected flit rate average = 0.139824
	minimum = 0.13365 (at node 37)
	maximum = 0.1456 (at node 30)
Accepted flit rate average= 0.139722
	minimum = 0.13525 (at node 32)
	maximum = 0.14425 (at node 53)
Injected packet length average = 1
Accepted packet length average = 1
Total in-flight flits = 131 (0 measured)
Buffer busy stall rate = 0
Buffer conflict stall rate = 0
Buffer full stall rate = 0
Buffer reserved stall rate = 0
Crossbar conflict stall rate = 0.189575
latency change    = 0.0440647
throughput change = 0.000208117
latency change    = 0.0447679
throughput change = 0.000313122
DVFS epoch t=20000 total_power=0.601094 headroom=-0.0010939 avg_power=0.636348 domains{0:freq=0.906664,power=0.601094} routers{0:freq=0.906664,power=0.039433, 1:freq=0.906664,power=0.0394051, 2:freq=0.906273,power=0.0393821, 3:freq=0.760571,power=0.0335304, 4:freq=0.760571,power=0.0335279, 5:freq=0.760571,power=0.0335444, 6:freq=0.760571,power=0.0335731, 7:freq=0.906273,power=0.0393812, 8:freq=0.906664,power=0.0394222, 9:freq=0.906664,power=0.0393922, 10:freq=0.906273,power=0.0393955, 11:freq=0.906664,power=0.0394156, 12:freq=0.906664,power=0.0394085, 13:freq=0.760571,power=0.0335052, 14:freq=0.906273,power=0.0393926, 15:freq=0.906273,power=0.0393849}
QUEUE_PID_DIFF: epoch=2 max_occ=0.0046875 avg_occ=0.00200195 budget=0.997265 headroom=-0.0010939
Class 0:
Packet latency average = 18.7652
	minimum = 6
	maximum = 40
Network latency average = 18.7652
	minimum = 6
	maximum = 40
Slowest packet = 340668
Flit latency average = 18.7652
	minimum = 6
	maximum = 40
Slowest flit = 340668
Fragmentation average = 0
	minimum = 0
	maximum = 0
Injected packet rate average = 0.0601422
	minimum = 0.0562 (at node 30)
	maximum = 0.0666 (at node 44)
Accepted packet rate average = 0.060125
	minimum = 0.0565 (at node 32)
	maximum = 0.0658 (at node 52)
Injected flit rate average = 0.0601422
	minimum = 0.0562 (at node 30)
	maximum = 0.0666 (at node 44)
Accepted flit rate average= 0.060125
	minimum = 0.0565 (at node 32)
	maximum = 0.0658 (at node 52)
Injected packet length average = 1
Accepted packet length average = 1
Total in-flight flits = 72 (0 measured)
Buffer busy stall rate = 0
Buffer conflict stall rate = 0
Buffer full stall rate = 0
Buffer reserved stall rate = 0
Crossbar conflict stall rate = 0.115488
Class 1:
Packet latency average = 18.8717
	minimum = 6
	maximum = 39
Network latency average = 18.7981
	minimum = 6
	maximum = 39
Slowest packet = 280152
Flit latency average = 18.7981
	minimum = 6
	maximum = 39
Slowest flit = 280152
Fragmentation average = 0
	minimum = 0
	maximum = 0
Injected packet rate average = 0.138927
	minimum = 0.1299 (at node 41)
	maximum = 0.1462 (at node 63)
Accepted packet rate average = 0.138862
	minimum = 0.1323 (at node 13)
	maximum = 0.1516 (at node 52)
Injected flit rate average = 0.138927
	minimum = 0.1299 (at node 41)
	maximum = 0.1462 (at node 63)
Accepted flit rate average= 0.138862
	minimum = 0.1323 (at node 13)
	maximum = 0.1516 (at node 52)
Injected packet length average = 1
Accepted packet length average = 1
Total in-flight flits = 174 (0 measured)
Buffer busy stall rate = 0
Buffer conflict stall rate = 0
Buffer full stall rate = 0
Buffer reserved stall rate = 0
Crossbar conflict stall rate = 0.259844
latency change    = 0.116613
throughput change = 0.0010395
latency change    = 0.117394
throughput change = 0.00618868
Warmed up ...Time used is 30000 cycles
DVFS epoch t=30000 total_power=0.542941 headroom=0.0570589 avg_power=0.605212 domains{0:freq=0.90254,power=0.542941} routers{0:freq=0.90254,power=0.0402647, 1:freq=0.755243,power=0.0342547, 2:freq=0.722874,power=0.0328752, 3:freq=0.760186,power=0.0344013, 4:freq=0.660023,power=0.0302492, 5:freq=0.680383,power=0.031127, 6:freq=0.660023,power=0.0302777, 7:freq=0.901745,power=0.0402565, 8:freq=0.690957,power=0.0315328, 9:freq=0.787504,power=0.0355508, 10:freq=0.787265,power=0.0355565, 11:freq=0.72306,power=0.0328845, 12:freq=0.755243,power=0.0341969, 13:freq=0.680383,power=0.0311043, 14:freq=0.722874,power=0.0328978, 15:freq=0.787265,power=0.035511}
QUEUE_PID_DIFF: epoch=3 max_occ=0.0046875 avg_occ=0.00292969 budget=1 headroom=0.0570589
Class 0:
Packet latency average = 19.4105
	minimum = 6
	maximum = 55
Network latency average = 19.4105
	minimum = 6
	maximum = 55
Slowest packet = 398099
Flit latency average = 19.413
	minimum = 6
	maximum = 55
Slowest flit = 398099
Fragmentation average = 0
	minimum = 0
	maximum = 0
Injected packet rate average = 0.0596109
	minimum = 0.0545 (at node 5)
	maximum = 0.065 (at node 58)
Accepted packet rate average = 0.0595875
	minimum = 0.0542 (at node 10)
	maximum = 0.0672 (at node 51)
Injected flit rate average = 0.0596109
	minimum = 0.0545 (at node 5)
	maximum = 0.065 (at node 58)
Accepted flit rate average= 0.0595875
	minimum = 0.0542 (at node 10)
	maximum = 0.0672 (at node 51)
Injected packet length average = 1
Accepted packet length average = 1
Total in-flight flits = 87 (87 measured)
Buffer busy stall rate = 0
Buffer conflict stall rate = 0
Buffer full stall rate = 0
Buffer reserved stall rate = 0
Crossbar conflict stall rate = 0.124244
Class 1:
Packet latency average = 19.5438
	minimum = 6
	maximum = 43
Network latency average = 19.4691
	minimum = 6
	maximum = 43
Slowest packet = 415697
Flit latency average = 19.4736
	minimum = 6
	maximum = 43
Slowest flit = 415697
Fragmentation average = 0
	minimum = 0
	maximum = 0
Injected packet rate average = 0.140505
	minimum = 0.1325 (at node 3)
	maximum = 0.1482 (at node 19)
Accepted packet rate average = 0.140503
	minimum = 0.1334 (at node 42)
	maximum = 0.1493 (at node 22)
Injected flit rate average = 0.140505
	minimum = 0.1325 (at node 3)
	maximum = 0.1482 (at node 19)
Accepted flit rate average= 0.140503
	minimum = 0.1334 (at node 42)
	maximum = 0.1493 (at node 22)
Injected packet length average = 1
Accepted packet length average = 1
Total in-flight flits = 174 (174 measured)
Buffer busy stall rate = 0
Buffer conflict stall rate = 0
Buffer full stall rate = 0
Buffer reserved stall rate = 0
Crossbar conflict stall rate = 0.291444
latency change    = 0.0332471
throughput change = 0.00902035
latency change    = 0.0343915
throughput change = 0.0116768
DVFS epoch t=40000 total_power=0.526206 headroom=0.0737935 avg_power=0.585461 domains{0:freq=0.785046,power=0.526206} routers{0:freq=0.785046,power=0.0363887, 1:freq=0.676781,power=0.0317714, 2:freq=0.723134,power=0.0337455, 3:freq=0.756158,power=0.0351469, 4:freq=0.659486,power=0.0310641, 5:freq=0.679298,power=0.0318891, 6:freq=0.65901,power=0.0310377, 7:freq=0.75257,power=0.0350068, 8:freq=0.628673,power=0.0297175, 9:freq=0.678281,power=0.0318361, 10:freq=0.786429,power=0.0364641, 11:freq=0.723326,power=0.0337875, 12:freq=0.656821,power=0.030899, 13:freq=0.679775,power=0.0319168, 14:freq=0.722657,power=0.0337083, 15:freq=0.678118,power=0.031827}
QUEUE_PID_DIFF: epoch=4 max_occ=0.00625 avg_occ=0.00297852 budget=1 headroom=0.0737935
Class 0:
Packet latency average = 19.9955
	minimum = 6
	maximum = 55
Network latency average = 19.9955
	minimum = 6
	maximum = 55
Slowest packet = 398099
Flit latency average = 19.9962
	minimum = 6
	maximum = 55
Slowest flit = 398099
Fragmentation average = 0
	minimum = 0
	maximum = 0
Injected packet rate average = 0.0595547
	minimum = 0.05565 (at node 62)
	maximum = 0.06335 (at node 32)
Accepted packet rate average = 0.0595555
	minimum = 0.05585 (at node 20)
	maximum = 0.06355 (at node 51)
Injected flit rate average = 0.0595547
	minimum = 0.05565 (at node 62)
	maximum = 0.06335 (at node 32)
Accepted flit rate average= 0.0595555
	minimum = 0.05585 (at node 20)
	maximum = 0.06355 (at node 51)
Injected packet length average = 1
Accepted packet length average = 1
Total in-flight flits = 71 (71 measured)
Buffer busy stall rate = 0
Buffer conflict stall rate = 0
Buffer full stall rate = 0
Buffer reserved stall rate = 0
Crossbar conflict stall rate = 0.134197
Class 1:
Packet latency average = 20.0909
	minimum = 6
	maximum = 48
Network latency average = 20.0168
	minimum = 6
	maximum = 48
Slowest packet = 561927
Flit latency average = 20.0185
	minimum = 6
	maximum = 48
Slowest flit = 561927
Fragmentation average = 0
	minimum = 0
	maximum = 0
Injected packet rate average = 0.140155
	minimum = 0.1347 (at node 34)
	maximum = 0.14635 (at node 8)
Accepted packet rate average = 0.140155
	minimum = 0.1349 (at node 1)
	maximum = 0.14675 (at node 37)
Injected flit rate average = 0.140155
	minimum = 0.1347 (at node 34)
	maximum = 0.14635 (at node 8)
Accepted flit rate average= 0.140155
	minimum = 0.1349 (at node 1)
	maximum = 0.14675 (at node 37)
Injected packet length average = 1
Accepted packet length average = 1
Total in-flight flits = 172 (172 measured)
Buffer busy stall rate = 0
Buffer conflict stall rate = 0
Buffer full stall rate = 0
Buffer reserved stall rate = 0
Crossbar conflict stall rate = 0.308922
latency change    = 0.029258
throughput change = 0.000537839
latency change    = 0.0272319
throughput change = 0.00248609
DVFS epoch t=50000 total_power=0.500452 headroom=0.099548 avg_power=0.568459 domains{0:freq=0.665576,power=0.500452} routers{0:freq=0.665576,power=0.0320646, 1:freq=0.597746,power=0.0291043, 2:freq=0.720474,power=0.0344552, 3:freq=0.630799,power=0.0305727, 4:freq=0.584998,power=0.0285621, 5:freq=0.675616,power=0.0325041, 6:freq=0.593547,power=0.028905, 7:freq=0.660174,power=0.0318671, 8:freq=0.62848,power=0.0304721, 9:freq=0.679131,power=0.0326381, 10:freq=0.681306,power=0.0327631, 11:freq=0.720196,power=0.0344741, 12:freq=0.603093,power=0.0293706, 13:freq=0.597682,power=0.02911, 14:freq=0.719115,power=0.0344168, 15:freq=0.598626,power=0.0291722}
QUEUE_PID_DIFF: epoch=5 max_occ=0.00625 avg_occ=0.00253906 budget=1 headroom=0.099548
Class 0:
Packet latency average = 20.5972
	minimum = 6
	maximum = 55
Network latency average = 20.5972
	minimum = 6
	maximum = 55
Slowest packet = 398099
Flit latency average = 20.5973
	minimum = 6
	maximum = 55
Slowest flit = 398099
Fragmentation average = 0
	minimum = 0
	maximum = 0
Injected packet rate average = 0.059762
	minimum = 0.0564 (at node 3)
	maximum = 0.0629667 (at node 20)
Accepted packet rate average = 0.0597589
	minimum = 0.0563667 (at node 20)
	maximum = 0.064 (at node 51)
Injected flit rate average = 0.059762
	minimum = 0.0564 (at node 3)
	maximum = 0.0629667 (at node 20)
Accepted flit rate average= 0.0597589
	minimum = 0.0563667 (at node 20)
	maximum = 0.064 (at node 51)
Injected packet length average = 1
Accepted packet length average = 1
Total in-flight flits = 78 (78 measured)
Buffer busy stall rate = 0
Buffer conflict stall rate = 0
Buffer full stall rate = 0
Buffer reserved stall rate = 0
Crossbar conflict stall rate = 0.145687
Class 1:
Packet latency average = 20.6786
	minimum = 6
	maximum = 57
Network latency average = 20.604
	minimum = 6
	maximum = 57
Slowest packet = 722837
Flit latency average = 20.6048
	minimum = 6
	maximum = 57
Slowest flit = 722837
Fragmentation average = 0
	minimum = 0
	maximum = 0
Injected packet rate average = 0.140379
	minimum = 0.1356 (at node 47)
	maximum = 0.144767 (at node 17)
Accepted packet rate average = 0.140376
	minimum = 0.134467 (at node 62)
	maximum = 0.144933 (at node 44)
Injected flit rate average = 0.140379
	minimum = 0.1356 (at node 47)
	maximum = 0.144767 (at node 17)
Accepted flit rate average= 0.140376
	minimum = 0.134467 (at node 62)
	maximum = 0.144933 (at node 44)
Injected packet length average = 1
Accepted packet length average = 1
Total in-flight flits = 179 (179 measured)
Buffer busy stall rate = 0
Buffer conflict stall rate = 0
Buffer full stall rate = 0
Buffer reserved stall rate = 0
Crossbar conflict stall rate = 0.331823
latency change    = 0.0292096
throughput change = 0.00340344
latency change    = 0.0284172
throughput change = 0.00157316
Draining all recorded packets ...
DVFS epoch t=60000 total_power=0.476725 headroom=0.123275 avg_power=0.55317 domains{0:freq=0.590767,power=0.476725} routers{0:freq=0.590767,power=0.0295039, 1:freq=0.553376,power=0.027864, 2:freq=0.718214,power=0.0352867, 3:freq=0.630775,power=0.0313527, 4:freq=0.549061,power=0.0276831, 5:freq=0.575591,power=0.0288562, 6:freq=0.545583,power=0.0275157, 7:freq=0.659467,power=0.0326116, 8:freq=0.565543,power=0.0283603, 9:freq=0.597118,power=0.0297647, 10:freq=0.590239,power=0.0295116, 11:freq=0.623033,power=0.0309137, 12:freq=0.55695,power=0.0280172, 13:freq=0.558579,power=0.0281185, 14:freq=0.634962,power=0.0315337, 15:freq=0.597766,power=0.029832}
QUEUE_PID_DIFF: epoch=6 max_occ=0.00625 avg_occ=0.0034668 budget=1 headroom=0.123275
Draining remaining packets ...
Time taken is 60071 cycles
====== Overall Traffic Statistics ======
====== Traffic class 0 ======
Packet latency average = 20.599 (1 samples)
	minimum = 6 (1 samples)
	maximum = 55 (1 samples)
Network latency average = 20.599 (1 samples)
	minimum = 6 (1 samples)
	maximum = 55 (1 samples)
Flit latency average = 20.6004 (1 samples)
	minimum = 6 (1 samples)
	maximum = 55 (1 samples)
Fragmentation average = 0 (1 samples)
	minimum = 0 (1 samples)
	maximum = 0 (1 samples)
Injected packet rate average = 0.059762 (1 samples)
	minimum = 0.0564 (1 samples)
	maximum = 0.0629667 (1 samples)
Accepted packet rate average = 0.0597589 (1 samples)
	minimum = 0.0563667 (1 samples)
	maximum = 0.064 (1 samples)
Injected flit rate average = 0.059762 (1 samples)
	minimum = 0.0564 (1 samples)
	maximum = 0.0629667 (1 samples)
Accepted flit rate average = 0.0597589 (1 samples)
	minimum = 0.0563667 (1 samples)
	maximum = 0.064 (1 samples)
Injected packet size average = 1 (1 samples)
Accepted packet size average = 1 (1 samples)
Hops average = 2.49783 (1 samples)
Buffer busy stall rate = 0 (1 samples)
Buffer conflict stall rate = 0 (1 samples)
Buffer full stall rate = 0 (1 samples)
Buffer reserved stall rate = 0 (1 samples)
Crossbar conflict stall rate = 0.145687 (1 samples)
====== Traffic class 1 ======
Packet latency average = 20.6801 (1 samples)
	minimum = 6 (1 samples)
	maximum = 57 (1 samples)
Network latency average = 20.6055 (1 samples)
	minimum = 6 (1 samples)
	maximum = 57 (1 samples)
Flit latency average = 20.6085 (1 samples)
	minimum = 6 (1 samples)
	maximum = 57 (1 samples)
Fragmentation average = 0 (1 samples)
	minimum = 0 (1 samples)
	maximum = 0 (1 samples)
Injected packet rate average = 0.140379 (1 samples)
	minimum = 0.1356 (1 samples)
	maximum = 0.144767 (1 samples)
Accepted packet rate average = 0.140376 (1 samples)
	minimum = 0.134467 (1 samples)
	maximum = 0.144933 (1 samples)
Injected flit rate average = 0.140379 (1 samples)
	minimum = 0.1356 (1 samples)
	maximum = 0.144767 (1 samples)
Accepted flit rate average = 0.140376 (1 samples)
	minimum = 0.134467 (1 samples)
	maximum = 0.144933 (1 samples)
Injected packet size average = 1 (1 samples)
Accepted packet size average = 1 (1 samples)
Hops average = 2.50044 (1 samples)
Buffer busy stall rate = 0 (1 samples)
Buffer conflict stall rate = 0 (1 samples)
Buffer full stall rate = 0 (1 samples)
Buffer reserved stall rate = 0 (1 samples)
Crossbar conflict stall rate = 0.331823 (1 samples)
Total run time 31.7172
1.85573e-13
1.01182e-14
8.2655e-14
1.09233e-13
1.89983e-13
5.84568e-13
3.37458e-13
1.11201e-12
8.52002e-14
1.49959e-12
4.63932e-14
1.01182e-14
2.06637e-14
1.56046e-14
1.89983e-13
8.35097e-14
8.43644e-14
3.57857e-13
2.13e-14
4.50637e-13
2.31966e-14
1.01182e-14
3.3062e-13
4.83744e-13
1.89983e-13
2.5888e-12
1.34983e-12
4.12861e-12
3.40801e-13
4.97629e-12
2.8975e-11
4.1409e-11
1.85573e-13
1.01182e-14
8.2655e-14
1.09233e-13
1.89983e-13
5.84568e-13
3.37458e-13
1.11201e-12
8.52002e-14
1.49959e-12
4.63932e-14
1.01182e-14
2.06637e-14
1.56046e-14
1.89983e-13
8.35097e-14
8.43644e-14
3.57857e-13
2.13e-14
4.50637e-13
2.31966e-14
1.01182e-14
3.3062e-13
4.83744e-13
1.89983e-13
2.5888e-12
1.34983e-12
4.12861e-12
3.40801e-13
4.97629e-12
2.8975e-11
4.1424e-11
1.85573e-13
1.01182e-14
8.2655e-14
1.09233e-13
1.89983e-13
5.84568e-13
3.37458e-13
1.11201e-12
8.52002e-14
1.49959e-12
4.63932e-14
1.01182e-14
2.06637e-14
1.56046e-14
1.89983e-13
8.35097e-14
8.43644e-14
3.57857e-13
2.13e-14
4.50637e-13
2.31966e-14
1.01182e-14
3.3062e-13
4.83744e-13
1.89983e-13
2.5888e-12
1.34983e-12
4.12861e-12
3.40801e-13
4.97629e-12
2.8975e-11
4.14075e-11
1.85573e-13
1.01182e-14
8.2655e-14
1.09233e-13
1.89983e-13
5.84568e-13
3.37458e-13
1.11201e-12
8.52002e-14
1.49959e-12
4.63932e-14
1.01182e-14
2.06637e-14
1.56046e-14
1.89983e-13
8.35097e-14
8.43644e-14
3.57857e-13
2.13e-14
4.50637e-13
2.31966e-14
1.01182e-14
3.3062e-13
4.83744e-13
1.89983e-13
2.5888e-12
1.34983e-12
4.12861e-12
3.40801e-13
4.97629e-12
2.8975e-11
4.14057e-11
1.85573e-13
1.01182e-14
8.2655e-14
1.09233e-13
1.89983e-13
5.84568e-13
3.37458e-13
1.11201e-12
8.52002e-14
1.49959e-12
4.63932e-14
1.01182e-14
2.06637e-14
1.56046e-14
1.89983e-13
8.35097e-14
8.43644e-14
3.57857e-13
2.13e-14
4.50637e-13
2.31966e-14
1.01182e-14
3.3062e-13
4.83744e-13
1.89983e-13
2.5888e-12
1.34983e-12
4.12861e-12
3.40801e-13
4.97629e-12
2.8975e-11
4.13659e-11
1.85573e-13
1.01182e-14
8.2655e-14
1.09233e-13
1.89983e-13
5.84568e-13
3.37458e-13
1.11201e-12
8.52002e-14
1.49959e-12
4.63932e-14
1.01182e-14
2.06637e-14
1.56046e-14
1.89983e-13
8.35097e-14
8.43644e-14
3.57857e-13
2.13e-14
4.50637e-13
2.31966e-14
1.01182e-14
3.3062e-13
4.83744e-13
1.89983e-13
2.5888e-12
1.34983e-12
4.12861e-12
3.40801e-13
4.97629e-12
2.8975e-11
4.14109e-11
1.85573e-13
1.01182e-14
8.2655e-14
1.09233e-13
1.89983e-13
5.84568e-13
3.37458e-13
1.11201e-12
8.52002e-14
1.49959e-12
4.63932e-14
1.01182e-14
2.06637e-14
1.56046e-14
1.89983e-13
8.35097e-14
8.43644e-14
3.57857e-13
2.13e-14
4.50637e-13
2.31966e-14
1.01182e-14
3.3062e-13
4.83744e-13
1.89983e-13
2.5888e-12
1.34983e-12
4.12861e-12
3.40801e-13
4.97629e-12
2.8975e-11
4.14092e-11
1.85573e-13
1.01182e-14
8.2655e-14
1.09233e-13
1.89983e-13
5.84568e-13
3.37458e-13
1.11201e-12
8.52002e-14
1.49959e-12
4.63932e-14
1.01182e-14
2.06637e-14
1.56046e-14
1.89983e-13
8.35097e-14
8.43644e-14
3.57857e-13
2.13e-14
4.50637e-13
2.31966e-14
1.01182e-14
3.3062e-13
4.83744e-13
1.89983e-13
2.5888e-12
1.34983e-12
4.12861e-12
3.40801e-13
4.97629e-12
2.8975e-11
4.14068e-11
1.85573e-13
1.01182e-14
8.2655e-14
1.09233e-13
1.89983e-13
5.84568e-13
3.37458e-13
1.11201e-12
8.52002e-14
1.49959e-12
4.63932e-14
1.01182e-14
2.06637e-14
1.56046e-14
1.89983e-13
8.35097e-14
8.43644e-14
3.57857e-13
2.13e-14
4.50637e-13
2.31966e-14
1.01182e-14
3.3062e-13
4.83744e-13
1.89983e-13
2.5888e-12
1.34983e-12
4.12861e-12
3.40801e-13
4.97629e-12
2.8975e-11
4.13727e-11
1.85573e-13
1.01182e-14
8.2655e-14
1.09233e-13
1.89983e-13
5.84568e-13
3.37458e-13
1.11201e-12
8.52002e-14
1.49959e-12
4.63932e-14
1.01182e-14
2.06637e-14
1.56046e-14
1.89983e-13
8.35097e-14
8.43644e-14
3.57857e-13
2.13e-14
4.50637e-13
2.31966e-14
1.01182e-14
3.3062e-13
4.83744e-13
1.89983e-13
2.5888e-12
1.34983e-12
4.12861e-12
3.40801e-13
4.97629e-12
2.8975e-11
4.13987e-11
1.85573e-13
1.01182e-14
8.2655e-14
1.09233e-13
1.89983e-13
5.84568e-13
3.37458e-13
1.11201e-12
8.52002e-14
1.49959e-12
4.63932e-14
1.01182e-14
2.06637e-14
1.56046e-14
1.89983e-13
8.35097e-14
8.43644e-14
3.57857e-13
2.13e-14
4.50637e-13
2.31966e-14
1.01182e-14
3.3062e-13
4.83744e-13
1.89983e-13
2.5888e-12
1.34983e-12
4.12861e-12
3.40801e-13
4.97629e-12
2.8975e-11
4.13736e-11
1.85573e-13
1.01182e-14
8.2655e-14
1.09233e-13
1.89983e-13
5.84568e-13
3.37458e-13
1.11201e-12
8.52002e-14
1.49959e-12
4.63932e-14
1.01182e-14
2.06637e-14
1.56046e-14
1.89983e-13
8.35097e-14
8.43644e-14
3.57857e-13
2.13e-14
4.50637e-13
2.31966e-14
1.01182e-14
3.3062e-13
4.83744e-13
1.89983e-13
2.5888e-12
1.34983e-12
4.12861e-12
3.40801e-13
4.97629e-12
2.8975e-11
4.1386e-11
1.85573e-13
1.01182e-14
8.2655e-14
1.09233e-13
1.89983e-13
5.84568e-13
3.37458e-13
1.11201e-12
8.52002e-14
1.49959e-12
4.63932e-14
1.01182e-14
2.06637e-14
1.56046e-14
1.89983e-13
8.35097e-14
8.43644e-14
3.57857e-13
2.13e-14
4.50637e-13
2.31966e-14
1.01182e-14
3.3062e-13
4.83744e-13
1.89983e-13
2.5888e-12
1.34983e-12
4.12861e-12
3.40801e-13
4.97629e-12
2.8975e-11
4.14069e-11
1.85573e-13
1.01182e-14
8.2655e-14
1.09233e-13
1.89983e-13
5.84568e-13
3.37458e-13
1.11201e-12
8.52002e-14
1.49959e-12
4.63932e-14
1.01182e-14
2.06637e-14
1.56046e-14
1.89983e-13
8.35097e-14
8.43644e-14
3.57857e-13
2.13e-14
4.50637e-13
2.31966e-14
1.01182e-14
3.3062e-13
4.83744e-13
1.89983e-13
2.5888e-12
1.34983e-12
4.12861e-12
3.40801e-13
4.97629e-12
2.8975e-11
4.14502e-11
1.85573e-13
1.01182e-14
8.2655e-14
1.09233e-13
1.89983e-13
5.84568e-13
3.37458e-13
1.11201e-12
8.52002e-14
1.49959e-12
4.63932e-14
1.01182e-14
2.06637e-14
1.56046e-14
1.89983e-13
8.35097e-14
8.43644e-14
3.57857e-13
2.13e-14
4.50637e-13
2.31966e-14
1.01182e-14
3.3062e-13
4.83744e-13
1.89983e-13
2.5888e-12
1.34983e-12
4.12861e-12
3.40801e-13
4.97629e-12
2.8975e-11
4.14196e-11
1.85573e-13
1.01182e-14
8.2655e-14
1.09233e-13
1.89983e-13
5.84568e-13
3.37458e-13
1.11201e-12
8.52002e-14
1.49959e-12
4.63932e-14
1.01182e-14
2.06637e-14
1.56046e-14
1.89983e-13
8.35097e-14
8.43644e-14
3.57857e-13
2.13e-14
4.50637e-13
2.31966e-14
1.01182e-14
3.3062e-13
4.83744e-13
1.89983e-13
2.5888e-12
1.34983e-12
4.12861e-12
3.40801e-13
4.97629e-12
2.8975e-11
4.14244e-11
1.85573e-13
1.01182e-14
8.2655e-14
1.09233e-13
1.89983e-13
5.84568e-13
3.37458e-13
1.11201e-12
8.52002e-14
1.49959e-12
4.63932e-14
1.01182e-14
2.06637e-14
1.56046e-14
1.89983e-13
8.35097e-14
8.43644e-14
3.57857e-13
2.13e-14
4.50637e-13
2.31966e-14
1.01182e-14
3.3062e-13
4.83744e-13
1.89983e-13
2.5888e-12
1.34983e-12
4.12861e-12
3.40801e-13
4.97629e-12
3.01535e-11
4.28577e-11
1.85573e-13
1.01182e-14
8.2655e-14
1.09233e-13
1.89983e-13
5.84568e-13
3.37458e-13
1.11201e-12
8.52002e-14
1.49959e-12
4.63932e-14
1.01182e-14
2.06637e-14
1.56046e-14
1.89983e-13
8.35097e-14
8.43644e-14
3.57857e-13
2.13e-14
4.50637e-13
2.31966e-14
1.01182e-14
3.3062e-13
4.83744e-13
1.89983e-13
2.5888e-12
1.34983e-12
4.12861e-12
3.40801e-13
4.97629e-12
3.01535e-11
4.28326e-11
1.85573e-13
1.01182e-14
8.2655e-14
1.09233e-13
1.89983e-13
5.84568e-13
3.37458e-13
1.11201e-12
8.52002e-14
1.49959e-12
4.63932e-14
1.01182e-14
2.06637e-14
1.56046e-14
1.89983e-13
8.35097e-14
8.43644e-14
3.57857e-13
2.13e-14
4.50637e-13
2.31966e-14
1.01182e-14
3.3062e-13
4.83744e-13
1.89983e-13
2.5888e-12
1.34983e-12
4.12861e-12
3.40801e-13
4.97629e-12
3.01535e-11
4.28273e-11
1.85573e-13
1.01182e-14
8.2655e-14
1.09233e-13
1.89983e-13
5.84568e-13
3.37458e-13
1.11201e-12
8.52002e-14
1.49959e-12
4.63932e-14
1.01182e-14
2.06637e-14
1.56046e-14
1.89983e-13
8.35097e-14
8.43644e-14
3.57857e-13
2.13e-14
4.50637e-13
2.31966e-14
1.01182e-14
3.3062e-13
4.83744e-13
1.89983e-13
2.5888e-12
1.34983e-12
4.12861e-12
3.40801e-13
4.97629e-12
3.01535e-11
4.33389e-11
1.85573e-13
1.01182e-14
8.2655e-14
1.09233e-13
1.89983e-13
5.84568e-13
3.37458e-13
1.11201e-12
8.52002e-14
1.49959e-12
4.63932e-14
1.01182e-14
2.06637e-14
1.56046e-14
1.89983e-13
8.35097e-14
8.43644e-14
3.57857e-13
2.13e-14
4.50637e-13
2.31966e-14
1.01182e-14
3.3062e-13
4.83744e-13
1.89983e-13
2.5888e-12
1.34983e-12
4.12861e-12
3.40801e-13
4.97629e-12
3.01535e-11
4.33358e-11
1.85573e-13
1.01182e-14
8.2655e-14
1.09233e-13
1.89983e-13
5.84568e-13
3.37458e-13
1.11201e-12
8.52002e-14
1.49959e-12
4.63932e-14
1.01182e-14
2.06637e-14
1.56046e-14
1.89983e-13
8.35097e-14
8.43644e-14
3.57857e-13
2.13e-14
4.50637e-13
2.31966e-14
1.01182e-14
3.3062e-13
4.83744e-13
1.89983e-13
2.5888e-12
1.34983e-12
4.12861e-12
3.40801e-13
4.97629e-12
3.01535e-11
4.33537e-11
1.85573e-13
1.01182e-14
8.2655e-14
1.09233e-13
1.89983e-13
5.84568e-13
3.37458e-13
1.11201e-12
8.52002e-14
1.49959e-12
4.63932e-14
1.01182e-14
2.06637e-14
1.56046e-14
1.89983e-13
8.35097e-14
8.43644e-14
3.57857e-13
2.13e-14
4.50637e-13
2.31966e-14
1.01182e-14
3.3062e-13
4.83744e-13
1.89983e-13
2.5888e-12
1.34983e-12
4.12861e-12
3.40801e-13
4.97629e-12
3.01535e-11
4.33841e-11
1.85573e-13
1.01182e-14
8.2655e-14
1.09233e-13
1.89983e-13
5.84568e-13
3.37458e-13
1.11201e-12
8.52002e-14
1.49959e-12
4.63932e-14
1.01182e-14
2.06637e-14
1.56046e-14
1.89983e-13
8.35097e-14
8.43644e-14
3.57857e-13
2.13e-14
4.50637e-13
2.31966e-14
1.01182e-14
3.3062e-13
4.83744e-13
1.89983e-13
2.5888e-12
1.34983e-12
4.12861e-12
3.40801e-13
4.97629e-12
3.01535e-11
4.28265e-11
1.85573e-13
1.01182e-14
8.2655e-14
1.09233e-13
1.89983e-13
5.84568e-13
3.37458e-13
1.11201e-12
8.52002e-14
1.49959e-12
4.63932e-14
1.01182e-14
2.06637e-14
1.56046e-14
1.89983e-13
8.35097e-14
8.43644e-14
3.57857e-13
2.13e-14
4.50637e-13
2.31966e-14
1.01182e-14
3.3062e-13
4.83744e-13
1.89983e-13
2.5888e-12
1.34983e-12
4.12861e-12
3.40801e-13
4.97629e-12
3.01535e-11
4.28478e-11
1.85573e-13
1.01182e-14
8.2655e-14
1.09233e-13
1.89983e-13
5.84568e-13
3.37458e-13
1.11201e-12
8.52002e-14
1.49959e-12
4.63932e-14
1.01182e-14
2.06637e-14
1.56046e-14
1.89983e-13
8.35097e-14
8.43644e-14
3.57857e-13
2.13e-14
4.50637e-13
2.31966e-14
1.01182e-14
3.3062e-13
4.83744e-13
1.89983e-13
2.5888e-12
1.34983e-12
4.12861e-12
3.40801e-13
4.97629e-12
3.01535e-11
4.28211e-11
1.85573e-13
1.01182e-14
8.2655e-14
1.09233e-13
1.89983e-13
5.84568e-13
3.37458e-13
1.11201e-12
8.52002e-14
1.49959e-12
4.63932e-14
1.01182e-14
2.06637e-14
1.56046e-14
1.89983e-13
8.35097e-14
8.43644e-14
3.57857e-13
2.13e-14
4.50637e-13
2.31966e-14
1.01182e-14
3.3062e-13
4.83744e-13
1.89983e-13
2.5888e-12
1.34983e-12
4.12861e-12
3.40801e-13
4.97629e-12
3.01535e-11
4.28393e-11
1.85573e-13
1.01182e-14
8.2655e-14
1.09233e-13
1.89983e-13
5.84568e-13
3.37458e-13
1.11201e-12
8.52002e-14
1.49959e-12
4.63932e-14
1.01182e-14
2.06637e-14
1.56046e-14
1.89983e-13
8.35097e-14
8.43644e-14
3.57857e-13
2.13e-14
4.50637e-13
2.31966e-14
1.01182e-14
3.3062e-13
4.83744e-13
1.89983e-13
2.5888e-12
1.34983e-12
4.12861e-12
3.40801e-13
4.97629e-12
3.01535e-11
4.2842e-11
1.85573e-13
1.01182e-14
8.2655e-14
1.09233e-13
1.89983e-13
5.84568e-13
3.37458e-13
1.11201e-12
8.52002e-14
1.49959e-12
4.63932e-14
1.01182e-14
2.06637e-14
1.56046e-14
1.89983e-13
8.35097e-14
8.43644e-14
3.57857e-13
2.13e-14
4.50637e-13
2.31966e-14
1.01182e-14
3.3062e-13
4.83744e-13
1.89983e-13
2.5888e-12
1.34983e-12
4.12861e-12
3.40801e-13
4.97629e-12
3.01535e-11
4.28357e-11
1.85573e-13
1.01182e-14
8.2655e-14
1.09233e-13
1.89983e-13
5.84568e-13
3.37458e-13
1.11201e-12
8.52002e-14
1.49959e-12
4.63932e-14
1.01182e-14
2.06637e-14
1.56046e-14
1.89983e-13
8.35097e-14
8.43644e-14
3.57857e-13
2.13e-14
4.50637e-13
2.31966e-14
1.01182e-14
3.3062e-13
4.83744e-13
1.89983e-13
2.5888e-12
1.34983e-12
4.12861e-12
3.40801e-13
4.97629e-12
3.01535e-11
4.33118e-11
1.85573e-13
1.01182e-14
8.2655e-14
1.09233e-13
1.89983e-13
5.84568e-13
3.37458e-13
1.11201e-12
8.52002e-14
1.49959e-12
4.63932e-14
1.01182e-14
2.06637e-14
1.56046e-14
1.89983e-13
8.35097e-14
8.43644e-14
3.57857e-13
2.13e-14
4.50637e-13
2.31966e-14
1.01182e-14
3.3062e-13
4.83744e-13
1.89983e-13
2.5888e-12
1.34983e-12
4.12861e-12
3.40801e-13
4.97629e-12
3.01535e-11
4.28366e-11
1.85573e-13
1.01182e-14
8.2655e-14
1.09233e-13
1.89983e-13
5.84568e-13
3.37458e-13
1.11201e-12
8.52002e-14
1.49959e-12
4.63932e-14
1.01182e-14
2.06637e-14
1.56046e-14
1.89983e-13
8.35097e-14
8.43644e-14
3.57857e-13
2.13e-14
4.50637e-13
2.31966e-14
1.01182e-14
3.3062e-13
4.83744e-13
1.89983e-13
2.5888e-12
1.34983e-12
4.12861e-12
3.40801e-13
4.97629e-12
3.01535e-11
4.28297e-11
1.85573e-13
1.01182e-14
8.2655e-14
1.09233e-13
1.89983e-13
5.84568e-13
3.37458e-13
1.11201e-12
8.52002e-14
1.49959e-12
4.63932e-14
1.01182e-14
2.06637e-14
1.56046e-14
1.89983e-13
8.35097e-14
8.43644e-14
3.57857e-13
2.13e-14
4.50637e-13
2.31966e-14
1.01182e-14
3.3062e-13
4.83744e-13
1.89983e-13
2.5888e-12
1.34983e-12
4.12861e-12
3.40801e-13
4.97629e-12
3.1332e-11
4.39888e-11
1.85573e-13
1.01182e-14
8.2655e-14
1.09233e-13
1.89983e-13
5.84568e-13
3.37458e-13
1.11201e-12
8.52002e-14
1.49959e-12
4.63932e-14
1.01182e-14
2.06637e-14
1.56046e-14
1.89983e-13
8.35097e-14
8.43644e-14
3.57857e-13
2.13e-14
4.50637e-13
2.31966e-14
1.01182e-14
3.3062e-13
4.83744e-13
1.89983e-13
2.5888e-12
1.34983e-12
4.12861e-12
3.40801e-13
4.97629e-12
3.1332e-11
4.45914e-11
1.85573e-13
1.01182e-14
8.2655e-14
1.09233e-13
1.89983e-13
5.84568e-13
3.37458e-13
1.11201e-12
8.52002e-14
1.49959e-12
4.63932e-14
1.01182e-14
2.06637e-14
1.56046e-14
1.89983e-13
8.35097e-14
8.43644e-14
3.57857e-13
2.13e-14
4.50637e-13
2.31966e-14
1.01182e-14
3.3062e-13
4.83744e-13
1.89983e-13
2.5888e-12
1.34983e-12
4.12861e-12
3.40801e-13
4.97629e-12
3.1332e-11
4.4691e-11
1.85573e-13
1.01182e-14
8.2655e-14
1.09233e-13
1.89983e-13
5.84568e-13
3.37458e-13
1.11201e-12
8.52002e-14
1.49959e-12
4.63932e-14
1.01182e-14
2.06637e-14
1.56046e-14
1.89983e-13
8.35097e-14
8.43644e-14
3.57857e-13
2.13e-14
4.50637e-13
2.31966e-14
1.01182e-14
3.3062e-13
4.83744e-13
1.89983e-13
2.5888e-12
1.34983e-12
4.12861e-12
3.40801e-13
4.97629e-12
3.1332e-11
4.45086e-11
1.85573e-13
1.01182e-14
8.2655e-14
1.09233e-13
1.89983e-13
5.84568e-13
3.37458e-13
1.11201e-12
8.52002e-14
1.49959e-12
4.63932e-14
1.01182e-14
2.06637e-14
1.56046e-14
1.89983e-13
8.35097e-14
8.43644e-14
3.57857e-13
2.13e-14
4.50637e-13
2.31966e-14
1.01182e-14
3.3062e-13
4.83744e-13
1.89983e-13
2.5888e-12
1.34983e-12
4.12861e-12
3.40801e-13
4.97629e-12
3.1332e-11
4.49765e-11
1.85573e-13
1.01182e-14
8.2655e-14
1.09233e-13
1.89983e-13
5.84568e-13
3.37458e-13
1.11201e-12
8.52002e-14
1.49959e-12
4.63932e-14
1.01182e-14
2.06637e-14
1.56046e-14
1.89983e-13
8.35097e-14
8.43644e-14
3.57857e-13
2.13e-14
4.50637e-13
2.31966e-14
1.01182e-14
3.3062e-13
4.83744e-13
1.89983e-13
2.5888e-12
1.34983e-12
4.12861e-12
3.40801e-13
4.97629e-12
3.1332e-11
4.49104e-11
1.85573e-13
1.01182e-14
8.2655e-14
1.09233e-13
1.89983e-13
5.84568e-13
3.37458e-13
1.11201e-12
8.52002e-14
1.49959e-12
4.63932e-14
1.01182e-14
2.06637e-14
1.56046e-14
1.89983e-13
8.35097e-14
8.43644e-14
3.57857e-13
2.13e-14
4.50637e-13
2.31966e-14
1.01182e-14
3.3062e-13
4.83744e-13
1.89983e-13
2.5888e-12
1.34983e-12
4.12861e-12
3.40801e-13
4.97629e-12
3.1332e-11
4.50113e-11
1.85573e-13
1.01182e-14
8.2655e-14
1.09233e-13
1.89983e-13
5.84568e-13
3.37458e-13
1.11201e-12
8.52002e-14
1.49959e-12
4.63932e-14
1.01182e-14
2.06637e-14
1.56046e-14
1.89983e-13
8.35097e-14
8.43644e-14
3.57857e-13
2.13e-14
4.50637e-13
2.31966e-14
1.01182e-14
3.3062e-13
4.83744e-13
1.89983e-13
2.5888e-12
1.34983e-12
4.12861e-12
3.40801e-13
4.97629e-12
3.1332e-11
4.40133e-11
1.85573e-13
1.01182e-14
8.2655e-14
1.09233e-13
1.89983e-13
5.84568e-13
3.37458e-13
1.11201e-12
8.52002e-14
1.49959e-12
4.63932e-14
1.01182e-14
2.06637e-14
1.56046e-14
1.89983e-13
8.35097e-14
8.43644e-14
3.57857e-13
2.13e-14
4.50637e-13
2.31966e-14
1.01182e-14
3.3062e-13
4.83744e-13
1.89983e-13
2.5888e-12
1.34983e-12
4.12861e-12
3.40801e-13
4.97629e-12
3.1332e-11
4.4819e-11
1.85573e-13
1.01182e-14
8.2655e-14
1.09233e-13
1.89983e-13
5.84568e-13
3.37458e-13
1.11201e-12
8.52002e-14
1.49959e-12
4.63932e-14
1.01182e-14
2.06637e-14
1.56046e-14
1.89983e-13
8.35097e-14
8.43644e-14
3.57857e-13
2.13e-14
4.50637e-13
2.31966e-14
1.01182e-14
3.3062e-13
4.83744e-13
1.89983e-13
2.5888e-12
1.34983e-12
4.12861e-12
3.40801e-13
4.97629e-12
3.1332e-11
4.44193e-11
1.85573e-13
1.01182e-14
8.2655e-14
1.09233e-13
1.89983e-13
5.84568e-13
3.37458e-13
1.11201e-12
8.52002e-14
1.49959e-12
4.63932e-14
1.01182e-14
2.06637e-14
1.56046e-14
1.89983e-13
8.35097e-14
8.43644e-14
3.57857e-13
2.13e-14
4.50637e-13
2.31966e-14
1.01182e-14
3.3062e-13
4.83744e-13
1.89983e-13
2.5888e-12
1.34983e-12
4.12861e-12
3.40801e-13
4.97629e-12
3.1332e-11
4.44364e-11
1.85573e-13
1.01182e-14
8.2655e-14
1.09233e-13
1.89983e-13
5.84568e-13
3.37458e-13
1.11201e-12
8.52002e-14
1.49959e-12
4.63932e-14
1.01182e-14
2.06637e-14
1.56046e-14
1.89983e-13
8.35097e-14
8.43644e-14
3.57857e-13
2.13e-14
4.50637e-13
2.31966e-14
1.01182e-14
3.3062e-13
4.83744e-13
1.89983e-13
2.5888e-12
1.34983e-12
4.12861e-12
3.40801e-13
4.97629e-12
3.1332e-11
4.46919e-11
1.85573e-13
1.01182e-14
8.2655e-14
1.09233e-13
1.89983e-13
5.84568e-13
3.37458e-13
1.11201e-12
8.52002e-14
1.49959e-12
4.63932e-14
1.01182e-14
2.06637e-14
1.56046e-14
1.89983e-13
8.35097e-14
8.43644e-14
3.57857e-13
2.13e-14
4.50637e-13
2.31966e-14
1.01182e-14
3.3062e-13
4.83744e-13
1.89983e-13
2.5888e-12
1.34983e-12
4.12861e-12
3.40801e-13
4.97629e-12
3.1332e-11
4.45294e-11
1.85573e-13
1.01182e-14
8.2655e-14
1.09233e-13
1.89983e-13
5.84568e-13
3.37458e-13
1.11201e-12
8.52002e-14
1.49959e-12
4.63932e-14
1.01182e-14
2.06637e-14
1.56046e-14
1.89983e-13
8.35097e-14
8.43644e-14
3.57857e-13
2.13e-14
4.50637e-13
2.31966e-14
1.01182e-14
3.3062e-13
4.83744e-13
1.89983e-13
2.5888e-12
1.34983e-12
4.12861e-12
3.40801e-13
4.97629e-12
3.1332e-11
4.48833e-11
1.85573e-13
1.01182e-14
8.2655e-14
1.09233e-13
1.89983e-13
5.84568e-13
3.37458e-13
1.11201e-12
8.52002e-14
1.49959e-12
4.63932e-14
1.01182e-14
2.06637e-14
1.56046e-14
1.89983e-13
8.35097e-14
8.43644e-14
3.57857e-13
2.13e-14
4.50637e-13
2.31966e-14
1.01182e-14
3.3062e-13
4.83744e-13
1.89983e-13
2.5888e-12
1.34983e-12
4.12861e-12
3.40801e-13
4.97629e-12
3.1332e-11
4.47162e-11
1.85573e-13
1.01182e-14
8.2655e-14
1.09233e-13
1.89983e-13
5.84568e-13
3.37458e-13
1.11201e-12
8.52002e-14
1.49959e-12
4.63932e-14
1.01182e-14
2.06637e-14
1.56046e-14
1.89983e-13
8.35097e-14
8.43644e-14
3.57857e-13
2.13e-14
4.50637e-13
2.31966e-14
1.01182e-14
3.3062e-13
4.83744e-13
1.89983e-13
2.5888e-12
1.34983e-12
4.12861e-12
3.40801e-13
4.97629e-12
3.1332e-11
4.43896e-11
1.85573e-13
1.01182e-14
8.2655e-14
1.09233e-13
1.89983e-13
5.84568e-13
3.37458e-13
1.11201e-12
8.52002e-14
1.49959e-12
4.63932e-14
1.01182e-14
2.06637e-14
1.56046e-14
1.89983e-13
8.35097e-14
8.43644e-14
3.57857e-13
2.13e-14
4.50637e-13
2.31966e-14
1.01182e-14
3.3062e-13
4.83744e-13
1.89983e-13
2.5888e-12
1.34983e-12
4.12861e-12
3.40801e-13
4.97629e-12
3.25105e-11
4.56223e-11
1.85573e-13
1.01182e-14
8.2655e-14
1.09233e-13
1.89983e-13
5.84568e-13
3.37458e-13
1.11201e-12
8.52002e-14
1.49959e-12
4.63932e-14
1.01182e-14
2.06637e-14
1.56046e-14
1.89983e-13
8.35097e-14
8.43644e-14
3.57857e-13
2.13e-14
4.50637e-13
2.31966e-14
1.01182e-14
3.3062e-13
4.83744e-13
1.89983e-13
2.5888e-12
1.34983e-12
4.12861e-12
3.40801e-13
4.97629e-12
3.25105e-11
4.61028e-11
1.85573e-13
1.01182e-14
8.2655e-14
1.09233e-13
1.89983e-13
5.84568e-13
3.37458e-13
1.11201e-12
8.52002e-14
1.49959e-12
4.63932e-14
1.01182e-14
2.06637e-14
1.56046e-14
1.89983e-13
8.35097e-14
8.43644e-14
3.57857e-13
2.13e-14
4.50637e-13
2.31966e-14
1.01182e-14
3.3062e-13
4.83744e-13
1.89983e-13
2.5888e-12
1.34983e-12
4.12861e-12
3.40801e-13
4.97629e-12
3.25105e-11
4.58763e-11
1.85573e-13
1.01182e-14
8.2655e-14
1.09233e-13
1.89983e-13
5.84568e-13
3.37458e-13
1.11201e-12
8.52002e-14
1.49959e-12
4.63932e-14
1.01182e-14
2.06637e-14
1.56046e-14
1.89983e-13
8.35097e-14
8.43644e-14
3.57857e-13
2.13e-14
4.50637e-13
2.31966e-14
1.01182e-14
3.3062e-13
4.83744e-13
1.89983e-13
2.5888e-12
1.34983e-12
4.12861e-12
3.40801e-13
4.97629e-12
3.25105e-11
4.57265e-11
1.85573e-13
1.01182e-14
8.2655e-14
1.09233e-13
1.89983e-13
5.84568e-13
3.37458e-13
1.11201e-12
8.52002e-14
1.49959e-12
4.63932e-14
1.01182e-14
2.06637e-14
1.56046e-14
1.89983e-13
8.35097e-14
8.43644e-14
3.57857e-13
2.13e-14
4.50637e-13
2.31966e-14
1.01182e-14
3.3062e-13
4.83744e-13
1.89983e-13
2.5888e-12
1.34983e-12
4.12861e-12
3.40801e-13
4.97629e-12
3.25105e-11
4.62312e-11
1.85573e-13
1.01182e-14
8.2655e-14
1.09233e-13
1.89983e-13
5.84568e-13
3.37458e-13
1.11201e-12
8.52002e-14
1.49959e-12
4.63932e-14
1.01182e-14
2.06637e-14
1.56046e-14
1.89983e-13
8.35097e-14
8.43644e-14
3.57857e-13
2.13e-14
4.50637e-13
2.31966e-14
1.01182e-14
3.3062e-13
4.83744e-13
1.89983e-13
2.5888e-12
1.34983e-12
4.12861e-12
3.40801e-13
4.97629e-12
3.25105e-11
4.61021e-11
1.85573e-13
1.01182e-14
8.2655e-14
1.09233e-13
1.89983e-13
5.84568e-13
3.37458e-13
1.11201e-12
8.52002e-14
1.49959e-12
4.63932e-14
1.01182e-14
2.06637e-14
1.56046e-14
1.89983e-13
8.35097e-14
8.43644e-14
3.57857e-13
2.13e-14
4.50637e-13
2.31966e-14
1.01182e-14
3.3062e-13
4.83744e-13
1.89983e-13
2.5888e-12
1.34983e-12
4.12861e-12
3.40801e-13
4.97629e-12
3.25105e-11
4.62264e-11
1.85573e-13
1.01182e-14
8.2655e-14
1.09233e-13
1.89983e-13
5.84568e-13
3.37458e-13
1.11201e-12
8.52002e-14
1.49959e-12
4.63932e-14
1.01182e-14
2.06637e-14
1.56046e-14
1.89983e-13
8.35097e-14
8.43644e-14
3.57857e-13
2.13e-14
4.50637e-13
2.31966e-14
1.01182e-14
3.3062e-13
4.83744e-13
1.89983e-13
2.5888e-12
1.34983e-12
4.12861e-12
3.40801e-13
4.97629e-12
3.25105e-11
4.57553e-11
1.85573e-13
1.01182e-14
8.2655e-14
1.09233e-13
1.89983e-13
5.84568e-13
3.37458e-13
1.11201e-12
8.52002e-14
1.49959e-12
4.63932e-14
1.01182e-14
2.06637e-14
1.56046e-14
1.89983e-13
8.35097e-14
8.43644e-14
3.57857e-13
2.13e-14
4.50637e-13
2.31966e-14
1.01182e-14
3.3062e-13
4.83744e-13
1.89983e-13
2.5888e-12
1.34983e-12
4.12861e-12
3.40801e-13
4.97629e-12
3.25105e-11
4.63666e-11
1.85573e-13
1.01182e-14
8.2655e-14
1.09233e-13
1.89983e-13
5.84568e-13
3.37458e-13
1.11201e-12
8.52002e-14
1.49959e-12
4.63932e-14
1.01182e-14
2.06637e-14
1.56046e-14
1.89983e-13
8.35097e-14
8.43644e-14
3.57857e-13
2.13e-14
4.50637e-13
2.31966e-14
1.01182e-14
3.3062e-13
4.83744e-13
1.89983e-13
2.5888e-12
1.34983e-12
4.12861e-12
3.40801e-13
4.97629e-12
3.25105e-11
4.60961e-11
1.85573e-13
1.01182e-14
8.2655e-14
1.09233e-13
1.89983e-13
5.84568e-13
3.37458e-13
1.11201e-12
8.52002e-14
1.49959e-12
4.63932e-14
1.01182e-14
2.06637e-14
1.56046e-14
1.89983e-13
8.35097e-14
8.43644e-14
3.57857e-13
2.13e-14
4.50637e-13
2.31966e-14
1.01182e-14
3.3062e-13
4.83744e-13
1.89983e-13
2.5888e-12
1.34983e-12
4.12861e-12
3.40801e-13
4.97629e-12
3.25105e-11
4.56338e-11
1.85573e-13
1.01182e-14
8.2655e-14
1.09233e-13
1.89983e-13
5.84568e-13
3.37458e-13
1.11201e-12
8.52002e-14
1.49959e-12
4.63932e-14
1.01182e-14
2.06637e-14
1.56046e-14
1.89983e-13
8.35097e-14
8.43644e-14
3.57857e-13
2.13e-14
4.50637e-13
2.31966e-14
1.01182e-14
3.3062e-13
4.83744e-13
1.89983e-13
2.5888e-12
1.34983e-12
4.12861e-12
3.40801e-13
4.97629e-12
3.25105e-11
4.59133e-11
1.85573e-13
1.01182e-14
8.2655e-14
1.09233e-13
1.89983e-13
5.84568e-13
3.37458e-13
1.11201e-12
8.52002e-14
1.49959e-12
4.63932e-14
1.01182e-14
2.06637e-14
1.56046e-14
1.89983e-13
8.35097e-14
8.43644e-14
3.57857e-13
2.13e-14
4.50637e-13
2.31966e-14
1.01182e-14
3.3062e-13
4.83744e-13
1.89983e-13
2.5888e-12
1.34983e-12
4.12861e-12
3.40801e-13
4.97629e-12
3.25105e-11
4.61825e-11
1.85573e-13
1.01182e-14
8.2655e-14
1.09233e-13
1.89983e-13
5.84568e-13
3.37458e-13
1.11201e-12
8.52002e-14
1.49959e-12
4.63932e-14
1.01182e-14
2.06637e-14
1.56046e-14
1.89983e-13
8.35097e-14
8.43644e-14
3.57857e-13
2.13e-14
4.50637e-13
2.31966e-14
1.01182e-14
3.3062e-13
4.83744e-13
1.89983e-13
2.5888e-12
1.34983e-12
4.12861e-12
3.40801e-13
4.97629e-12
3.25105e-11
4.61085e-11
1.85573e-13
1.01182e-14
8.2655e-14
1.09233e-13
1.89983e-13
5.84568e-13
3.37458e-13
1.11201e-12
8.52002e-14
1.49959e-12
4.63932e-14
1.01182e-14
2.06637e-14
1.56046e-14
1.89983e-13
8.35097e-14
8.43644e-14
3.57857e-13
2.13e-14
4.50637e-13
2.31966e-14
1.01182e-14
3.3062e-13
4.83744e-13
1.89983e-13
2.5888e-12
1.34983e-12
4.12861e-12
3.40801e-13
4.97629e-12
3.25105e-11
4.58596e-11
1.85573e-13
1.01182e-14
8.2655e-14
1.09233e-13
1.89983e-13
5.84568e-13
3.37458e-13
1.11201e-12
8.52002e-14
1.49959e-12
4.63932e-14
1.01182e-14
2.06637e-14
1.56046e-14
1.89983e-13
8.35097e-14
8.43644e-14
3.57857e-13
2.13e-14
4.50637e-13
2.31966e-14
1.01182e-14
3.3062e-13
4.83744e-13
1.89983e-13
2.5888e-12
1.34983e-12
4.12861e-12
3.40801e-13
4.97629e-12
3.25105e-11
4.60941e-11
1.85573e-13
1.01182e-14
8.2655e-14
1.09233e-13
1.89983e-13
5.84568e-13
3.37458e-13
1.11201e-12
8.52002e-14
1.49959e-12
4.63932e-14
1.01182e-14
2.06637e-14
1.56046e-14
1.89983e-13
8.35097e-14
8.43644e-14
3.57857e-13
2.13e-14
4.50637e-13
2.31966e-14
1.01182e-14
3.3062e-13
4.83744e-13
1.89983e-13
2.5888e-12
1.34983e-12
4.12861e-12
3.40801e-13
4.97629e-12
3.3689e-11
4.73236e-11
1.85573e-13
1.01182e-14
8.2655e-14
1.09233e-13
1.89983e-13
5.84568e-13
3.37458e-13
1.11201e-12
8.52002e-14
1.49959e-12
4.63932e-14
1.01182e-14
2.06637e-14
1.56046e-14
1.89983e-13
8.35097e-14
8.43644e-14
3.57857e-13
2.13e-14
4.50637e-13
2.31966e-14
1.01182e-14
3.3062e-13
4.83744e-13
1.89983e-13
2.5888e-12
1.34983e-12
4.12861e-12
3.40801e-13
4.97629e-12
3.3689e-11
4.77405e-11
1.85573e-13
1.01182e-14
8.2655e-14
1.09233e-13
1.89983e-13
5.84568e-13
3.37458e-13
1.11201e-12
8.52002e-14
1.49959e-12
4.63932e-14
1.01182e-14
2.06637e-14
1.56046e-14
1.89983e-13
8.35097e-14
8.43644e-14
3.57857e-13
2.13e-14
4.50637e-13
2.31966e-14
1.01182e-14
3.3062e-13
4.83744e-13
1.89983e-13
2.5888e-12
1.34983e-12
4.12861e-12
3.40801e-13
4.97629e-12
3.3689e-11
4.70378e-11
1.85573e-13
1.01182e-14
8.2655e-14
1.09233e-13
1.89983e-13
5.84568e-13
3.37458e-13
1.11201e-12
8.52002e-14
1.49959e-12
4.63932e-14
1.01182e-14
2.06637e-14
1.56046e-14
1.89983e-13
8.35097e-14
8.43644e-14
3.57857e-13
2.13e-14
4.50637e-13
2.31966e-14
1.01182e-14
3.3062e-13
4.83744e-13
1.89983e-13
2.5888e-12
1.34983e-12
4.12861e-12
3.40801e-13
4.97629e-12
3.3689e-11
4.75597e-11
1.85573e-13
1.01182e-14
8.2655e-14
1.09233e-13
1.89983e-13
5.84568e-13
3.37458e-13
1.11201e-12
8.52002e-14
1.49959e-12
4.63932e-14
1.01182e-14
2.06637e-14
1.56046e-14
1.89983e-13
8.35097e-14
8.43644e-14
3.57857e-13
2.13e-14
4.50637e-13
2.31966e-14
1.01182e-14
3.3062e-13
4.83744e-13
1.89983e-13
2.5888e-12
1.34983e-12
4.12861e-12
3.40801e-13
4.97629e-12
3.3689e-11
4.78494e-11
1.85573e-13
1.01182e-14
8.2655e-14
1.09233e-13
1.89983e-13
5.84568e-13
3.37458e-13
1.11201e-12
8.52002e-14
1.49959e-12
4.63932e-14
1.01182e-14
2.06637e-14
1.56046e-14
1.89983e-13
8.35097e-14
8.43644e-14
3.57857e-13
2.13e-14
4.50637e-13
2.31966e-14
1.01182e-14
3.3062e-13
4.83744e-13
1.89983e-13
2.5888e-12
1.34983e-12
4.12861e-12
3.40801e-13
4.97629e-12
3.3689e-11
4.72707e-11
1.85573e-13
1.01182e-14
8.2655e-14
1.09233e-13
1.89983e-13
5.84568e-13
3.37458e-13
1.11201e-12
8.52002e-14
1.49959e-12
4.63932e-14
1.01182e-14
2.06637e-14
1.56046e-14
1.89983e-13
8.35097e-14
8.43644e-14
3.57857e-13
2.13e-14
4.50637e-13
2.31966e-14
1.01182e-14
3.3062e-13
4.83744e-13
1.89983e-13
2.5888e-12
1.34983e-12
4.12861e-12
3.40801e-13
4.97629e-12
3.3689e-11
4.77477e-11
1.85573e-13
1.01182e-14
8.2655e-14
1.09233e-13
1.89983e-13
5.84568e-13
3.37458e-13
1.11201e-12
8.52002e-14
1.49959e-12
4.63932e-14
1.01182e-14
2.06637e-14
1.56046e-14
1.89983e-13
8.35097e-14
8.43644e-14
3.57857e-13
2.13e-14
4.50637e-13
2.31966e-14
1.01182e-14
3.3062e-13
4.83744e-13
1.89983e-13
2.5888e-12
1.34983e-12
4.12861e-12
3.40801e-13
4.97629e-12
3.3689e-11
4.74007e-11
1.85573e-13
1.01182e-14
8.2655e-14
1.09233e-13
1.89983e-13
5.84568e-13
3.37458e-13
1.11201e-12
8.52002e-14
1.49959e-12
4.63932e-14
1.01182e-14
2.06637e-14
1.56046e-14
1.89983e-13
8.35097e-14
8.43644e-14
3.57857e-13
2.13e-14
4.50637e-13
2.31966e-14
1.01182e-14
3.3062e-13
4.83744e-13
1.89983e-13
2.5888e-12
1.34983e-12
4.12861e-12
3.40801e-13
4.97629e-12
3.3689e-11
4.75747e-11
1.85573e-13
1.01182e-14
8.2655e-14
1.09233e-13
1.89983e-13
5.84568e-13
3.37458e-13
1.11201e-12
8.52002e-14
1.49959e-12
4.63932e-14
1.01182e-14
2.06637e-14
1.56046e-14
1.89983e-13
8.35097e-14
8.43644e-14
3.57857e-13
2.13e-14
4.50637e-13
2.31966e-14
1.01182e-14
3.3062e-13
4.83744e-13
1.89983e-13
2.5888e-12
1.34983e-12
4.12861e-12
3.40801e-13
4.97629e-12
3.3689e-11
4.72287e-11
1.85573e-13
1.01182e-14
8.2655e-14
1.09233e-13
1.89983e-13
5.84568e-13
3.37458e-13
1.11201e-12
8.52002e-14
1.49959e-12
4.63932e-14
1.01182e-14
2.06637e-14
1.56046e-14
1.89983e-13
8.35097e-14
8.43644e-14
3.57857e-13
2.13e-14
4.50637e-13
2.31966e-14
1.01182e-14
3.3062e-13
4.83744e-13
1.89983e-13
2.5888e-12
1.34983e-12
4.12861e-12
3.40801e-13
4.97629e-12
3.3689e-11
4.72531e-11
1.85573e-13
1.01182e-14
8.2655e-14
1.09233e-13
1.89983e-13
5.84568e-13
3.37458e-13
1.11201e-12
8.52002e-14
1.49959e-12
4.63932e-14
1.01182e-14
2.06637e-14
1.56046e-14
1.89983e-13
8.35097e-14
8.43644e-14
3.57857e-13
2.13e-14
4.50637e-13
2.31966e-14
1.01182e-14
3.3062e-13
4.83744e-13
1.89983e-13
2.5888e-12
1.34983e-12
4.12861e-12
3.40801e-13
4.97629e-12
3.3689e-11
4.70739e-11
1.85573e-13
1.01182e-14
8.2655e-14
1.09233e-13
1.89983e-13
5.84568e-13
3.37458e-13
1.11201e-12
8.52002e-14
1.49959e-12
4.63932e-14
1.01182e-14
2.06637e-14
1.56046e-14
1.89983e-13
8.35097e-14
8.43644e-14
3.57857e-13
2.13e-14
4.50637e-13
2.31966e-14
1.01182e-14
3.3062e-13
4.83744e-13
1.89983e-13
2.5888e-12
1.34983e-12
4.12861e-12
3.40801e-13
4.97629e-12
3.3689e-11
4.77486e-11
1.85573e-13
1.01182e-14
8.2655e-14
1.09233e-13
1.89983e-13
5.84568e-13
3.37458e-13
1.11201e-12
8.52002e-14
1.49959e-12
4.63932e-14
1.01182e-14
2.06637e-14
1.56046e-14
1.89983e-13
8.35097e-14
8.43644e-14
3.57857e-13
2.13e-14
4.50637e-13
2.31966e-14
1.01182e-14
3.3062e-13
4.83744e-13
1.89983e-13
2.5888e-12
1.34983e-12
4.12861e-12
3.40801e-13
4.97629e-12
3.3689e-11
4.77527e-11
1.85573e-13
1.01182e-14
8.2655e-14
1.09233e-13
1.89983e-13
5.84568e-13
3.37458e-13
1.11201e-12
8.52002e-14
1.49959e-12
4.63932e-14
1.01182e-14
2.06637e-14
1.56046e-14
1.89983e-13
8.35097e-14
8.43644e-14
3.57857e-13
2.13e-14
4.50637e-13
2.31966e-14
1.01182e-14
3.3062e-13
4.83744e-13
1.89983e-13
2.5888e-12
1.34983e-12
4.12861e-12
3.40801e-13
4.97629e-12
3.3689e-11
4.70677e-11
1.85573e-13
1.01182e-14
8.2655e-14
1.09233e-13
1.89983e-13
5.84568e-13
3.37458e-13
1.11201e-12
8.52002e-14
1.49959e-12
4.63932e-14
1.01182e-14
2.06637e-14
1.56046e-14
1.89983e-13
8.35097e-14
8.43644e-14
3.57857e-13
2.13e-14
4.50637e-13
2.31966e-14
1.01182e-14
3.3062e-13
4.83744e-13
1.89983e-13
2.5888e-12
1.34983e-12
4.12861e-12
3.40801e-13
4.97629e-12
3.3689e-11
4.77747e-11
1.85573e-13
1.01182e-14
8.2655e-14
1.09233e-13
1.89983e-13
5.84568e-13
3.37458e-13
1.11201e-12
8.52002e-14
1.49959e-12
4.63932e-14
1.01182e-14
2.06637e-14
1.56046e-14
1.89983e-13
8.35097e-14
8.43644e-14
3.57857e-13
2.13e-14
4.50637e-13
2.31966e-14
1.01182e-14
3.3062e-13
4.83744e-13
1.89983e-13
2.5888e-12
1.34983e-12
4.12861e-12
3.40801e-13
4.97629e-12
3.48675e-11
4.89785e-11
1.85573e-13
1.01182e-14
8.2655e-14
1.09233e-13
1.89983e-13
5.84568e-13
3.37458e-13
1.11201e-12
8.52002e-14
1.49959e-12
4.63932e-14
1.01182e-14
2.06637e-14
1.56046e-14
1.89983e-13
8.35097e-14
8.43644e-14
3.57857e-13
2.13e-14
4.50637e-13
2.31966e-14
1.01182e-14
3.3062e-13
4.83744e-13
1.89983e-13
2.5888e-12
1.34983e-12
4.12861e-12
3.40801e-13
4.97629e-12
3.48675e-11
4.93119e-11
1.85573e-13
1.01182e-14
8.2655e-14
1.09233e-13
1.89983e-13
5.84568e-13
3.37458e-13
1.11201e-12
8.52002e-14
1.49959e-12
4.63932e-14
1.01182e-14
2.06637e-14
1.56046e-14
1.89983e-13
8.35097e-14
8.43644e-14
3.57857e-13
2.13e-14
4.50637e-13
2.31966e-14
1.01182e-14
3.3062e-13
4.83744e-13
1.89983e-13
2.5888e-12
1.34983e-12
4.12861e-12
3.40801e-13
4.97629e-12
3.48675e-11
4.83211e-11
1.85573e-13
1.01182e-14
8.2655e-14
1.09233e-13
1.89983e-13
5.84568e-13
3.37458e-13
1.11201e-12
8.52002e-14
1.49959e-12
4.63932e-14
1.01182e-14
2.06637e-14
1.56046e-14
1.89983e-13
8.35097e-14
8.43644e-14
3.57857e-13
2.13e-14
4.50637e-13
2.31966e-14
1.01182e-14
3.3062e-13
4.83744e-13
1.89983e-13
2.5888e-12
1.34983e-12
4.12861e-12
3.40801e-13
4.97629e-12
3.48675e-11
4.87864e-11
1.85573e-13
1.01182e-14
8.2655e-14
1.09233e-13
1.89983e-13
5.84568e-13
3.37458e-13
1.11201e-12
8.52002e-14
1.49959e-12
4.63932e-14
1.01182e-14
2.06637e-14
1.56046e-14
1.89983e-13
8.35097e-14
8.43644e-14
3.57857e-13
2.13e-14
4.50637e-13
2.31966e-14
1.01182e-14
3.3062e-13
4.83744e-13
1.89983e-13
2.5888e-12
1.34983e-12
4.12861e-12
3.40801e-13
4.97629e-12
3.48675e-11
4.93656e-11
1.85573e-13
1.01182e-14
8.2655e-14
1.09233e-13
1.89983e-13
5.84568e-13
3.37458e-13
1.11201e-12
8.52002e-14
1.49959e-12
4.63932e-14
1.01182e-14
2.06637e-14
1.56046e-14
1.89983e-13
8.35097e-14
8.43644e-14
3.57857e-13
2.13e-14
4.50637e-13
2.31966e-14
1.01182e-14
3.3062e-13
4.83744e-13
1.89983e-13
2.5888e-12
1.34983e-12
4.12861e-12
3.40801e-13
4.97629e-12
3.48675e-11
4.91335e-11
1.85573e-13
1.01182e-14
8.2655e-14
1.09233e-13
1.89983e-13
5.84568e-13
3.37458e-13
1.11201e-12
8.52002e-14
1.49959e-12
4.63932e-14
1.01182e-14
2.06637e-14
1.56046e-14
1.89983e-13
8.35097e-14
8.43644e-14
3.57857e-13
2.13e-14
4.50637e-13
2.31966e-14
1.01182e-14
3.3062e-13
4.83744e-13
1.89983e-13
2.5888e-12
1.34983e-12
4.12861e-12
3.40801e-13
4.97629e-12
3.48675e-11
4.93775e-11
1.85573e-13
1.01182e-14
8.2655e-14
1.09233e-13
1.89983e-13
5.84568e-13
3.37458e-13
1.11201e-12
8.52002e-14
1.49959e-12
4.63932e-14
1.01182e-14
2.06637e-14
1.56046e-14
1.89983e-13
8.35097e-14
8.43644e-14
3.57857e-13
2.13e-14
4.50637e-13
2.31966e-14
1.01182e-14
3.3062e-13
4.83744e-13
1.89983e-13
2.5888e-12
1.34983e-12
4.12861e-12
3.40801e-13
4.97629e-12
3.48675e-11
4.85811e-11
1.85573e-13
1.01182e-14
8.2655e-14
1.09233e-13
1.89983e-13
5.84568e-13
3.37458e-13
1.11201e-12
8.52002e-14
1.49959e-12
4.63932e-14
1.01182e-14
2.06637e-14
1.56046e-14
1.89983e-13
8.35097e-14
8.43644e-14
3.57857e-13
2.13e-14
4.50637e-13
2.31966e-14
1.01182e-14
3.3062e-13
4.83744e-13
1.89983e-13
2.5888e-12
1.34983e-12
4.12861e-12
3.40801e-13
4.97629e-12
3.48675e-11
4.91449e-11
1.85573e-13
1.01182e-14
8.2655e-14
1.09233e-13
1.89983e-13
5.84568e-13
3.37458e-13
1.11201e-12
8.52002e-14
1.49959e-12
4.63932e-14
1.01182e-14
2.06637e-14
1.56046e-14
1.89983e-13
8.35097e-14
8.43644e-14
3.57857e-13
2.13e-14
4.50637e-13
2.31966e-14
1.01182e-14
3.3062e-13
4.83744e-13
1.89983e-13
2.5888e-12
1.34983e-12
4.12861e-12
3.40801e-13
4.97629e-12
3.48675e-11
4.89018e-11
1.85573e-13
1.01182e-14
8.2655e-14
1.09233e-13
1.89983e-13
5.84568e-13
3.37458e-13
1.11201e-12
8.52002e-14
1.49959e-12
4.63932e-14
1.01182e-14
2.06637e-14
1.56046e-14
1.89983e-13
8.35097e-14
8.43644e-14
3.57857e-13
2.13e-14
4.50637e-13
2.31966e-14
1.01182e-14
3.3062e-13
4.83744e-13
1.89983e-13
2.5888e-12
1.34983e-12
4.12861e-12
3.40801e-13
4.97629e-12
3.48675e-11
4.90254e-11
1.85573e-13
1.01182e-14
8.2655e-14
1.09233e-13
1.89983e-13
5.84568e-13
3.37458e-13
1.11201e-12
8.52002e-14
1.49959e-12
4.63932e-14
1.01182e-14
2.06637e-14
1.56046e-14
1.89983e-13
8.35097e-14
8.43644e-14
3.57857e-13
2.13e-14
4.50637e-13
2.31966e-14
1.01182e-14
3.3062e-13
4.83744e-13
1.89983e-13
2.5888e-12
1.34983e-12
4.12861e-12
3.40801e-13
4.97629e-12
3.48675e-11
4.87162e-11
1.85573e-13
1.01182e-14
8.2655e-14
1.09233e-13
1.89983e-13
5.84568e-13
3.37458e-13
1.11201e-12
8.52002e-14
1.49959e-12
4.63932e-14
1.01182e-14
2.06637e-14
1.56046e-14
1.89983e-13
8.35097e-14
8.43644e-14
3.57857e-13
2.13e-14
4.50637e-13
2.31966e-14
1.01182e-14
3.3062e-13
4.83744e-13
1.89983e-13
2.5888e-12
1.34983e-12
4.12861e-12
3.40801e-13
4.97629e-12
3.48675e-11
4.92729e-11
1.85573e-13
1.01182e-14
8.2655e-14
1.09233e-13
1.89983e-13
5.84568e-13
3.37458e-13
1.11201e-12
8.52002e-14
1.49959e-12
4.63932e-14
1.01182e-14
2.06637e-14
1.56046e-14
1.89983e-13
8.35097e-14
8.43644e-14
3.57857e-13
2.13e-14
4.50637e-13
2.31966e-14
1.01182e-14
3.3062e-13
4.83744e-13
1.89983e-13
2.5888e-12
1.34983e-12
4.12861e-12
3.40801e-13
4.97629e-12
3.48675e-11
4.93008e-11
1.85573e-13
1.01182e-14
8.2655e-14
1.09233e-13
1.89983e-13
5.84568e-13
3.37458e-13
1.11201e-12
8.52002e-14
1.49959e-12
4.63932e-14
1.01182e-14
2.06637e-14
1.56046e-14
1.89983e-13
8.35097e-14
8.43644e-14
3.57857e-13
2.13e-14
4.50637e-13
2.31966e-14
1.01182e-14
3.3062e-13
4.83744e-13
1.89983e-13
2.5888e-12
1.34983e-12
4.12861e-12
3.40801e-13
4.97629e-12
3.48675e-11
4.87519e-11
1.85573e-13
1.01182e-14
8.2655e-14
1.09233e-13
1.89983e-13
5.84568e-13
3.37458e-13
1.11201e-12
8.52002e-14
1.49959e-12
4.63932e-14
1.01182e-14
2.06637e-14
1.56046e-14
1.89983e-13
8.35097e-14
8.43644e-14
3.57857e-13
2.13e-14
4.50637e-13
2.31966e-14
1.01182e-14
3.3062e-13
4.83744e-13
1.89983e-13
2.5888e-12
1.34983e-12
4.12861e-12
3.40801e-13
4.97629e-12
3.48675e-11
4.89493e-11
