BEGIN Configuration File: /Users/yash/Projects/wsc-noc-dvfs/final_paper_sims/mesh/mesh_uniform_inj0.6_cap0.8/config.cfg

// Final Paper Simulation Config
// Topology: mesh, Policy: uniform
// Injection Rate: 0.6, Power Cap: 0.8W

// VC Configuration
read_request_begin_vc  = 0;
read_request_end_vc    = 5;
write_reply_begin_vc   = 2;
write_reply_end_vc     = 7;
read_reply_begin_vc    = 8;
read_reply_end_vc      = 12;
write_request_begin_vc = 10;
write_request_end_vc   = 15;
num_vcs     = 16;
vc_buf_size = 8;
wait_for_tail_credit = 0;
vc_allocator = max_size;
sw_allocator = max_size;
alloc_iters  = 2;
credit_delay   = 2;
routing_delay  = 0;
vc_alloc_delay = 1;
sw_alloc_delay = 1;
st_final_delay = 1;
input_speedup     = 1;
output_speedup    = 1;
internal_speedup  = 1.0;

// Detailed simulation settings (longer runs for accuracy)
sim_type = latency;
warmup_periods = 3;
sim_count = 1;
sample_period  = 10000;
max_samples = 15;
use_read_write = 0;
batch_size = 10000;
latency_thres = 5000;
packet_size = 1;

// Topology

topology = mesh;
k  = 8;
n  = 2;
routing_function = dor;


// Traffic - 2 classes with different priorities
// Using uniform traffic with configurable injection rate
// Split injection: 30% control (class 0), 70% batch (class 1)
traffic = uniform;
injection_rate = {0.18,0.42};

// 2-class traffic for SLO-aware policies
classes = 2;
class_priority = {1,0};
class_slo = {50,-1};
priority_policy = static_class;

// Orion power model
use_orion = 1;
Vdd = 1.0;
Orion_tr = 0.2;
Orion_Freq = 1e9;
Orion_inport = 5;
Orion_outport = 5;
Orion_bitwidth = 128;
Orion_vc_class = 1;
Orion_IsSharedBuffIn = 0;
Orion_IsSharedBuffOut = 0;
Orion_crossbar_model = 0;
Orion_crsbar_degree = 4;
Orion_Cxbar_Cxpoint = 0;
Orion_trans_type = 0;
Orion_IsInBuff = 1;
Orion_out_buf_size = 0;
Orion_IsOutBuff = 0;
Orion_buff_type = 0;
Orion_in_arb_model = 1;
Orion_out_arb_model = 1;
Orion_allocator_model = 1;
Orion_in_vc_arb_model = 1;
Orion_out_vc_arb_model = 1;
wire_length = 1.0;

// Power cap
power_cap = 0.8;

// DVFS base settings
dvfs_epoch = 10000;
dvfs_log_interval = 10000;
dvfs_freqs = 1.0;
dvfs_voltages = 1.0;
router_domains = 0;

// Policy-specific settings

dvfs_policy = uniform;
dvfs_min_scale = 0.5;
dvfs_max_scale = 1.0;


// Output files
latency_csv = latency.csv;
stall_csv = stalls.csv;
throughput_csv = throughput.csv;
summary_csv = summary.csv;
energy_csv = energy.csv;
epoch_csv = epoch.csv;
dvfs_log = power_log;
output_dir = /Users/yash/Projects/wsc-noc-dvfs/final_paper_sims/mesh;
run_name = mesh_uniform_inj0.6_cap0.8;

END Configuration File: /Users/yash/Projects/wsc-noc-dvfs/final_paper_sims/mesh/mesh_uniform_inj0.6_cap0.8/config.cfg
Class 0:
Packet latency average = 519.637
	minimum = 6
	maximum = 4069
Network latency average = 516.88
	minimum = 6
	maximum = 4069
Slowest packet = 64041
Flit latency average = 516.88
	minimum = 6
	maximum = 4069
Slowest flit = 64041
Fragmentation average = 0
	minimum = 0
	maximum = 0
Injected packet rate average = 0.179588
	minimum = 0.1689 (at node 47)
	maximum = 0.1877 (at node 49)
Accepted packet rate average = 0.168152
	minimum = 0.1598 (at node 17)
	maximum = 0.1798 (at node 39)
Injected flit rate average = 0.179588
	minimum = 0.1689 (at node 47)
	maximum = 0.1877 (at node 49)
Accepted flit rate average= 0.168152
	minimum = 0.1598 (at node 17)
	maximum = 0.1798 (at node 39)
Injected packet length average = 1
Accepted packet length average = 1
Total in-flight flits = 7333 (0 measured)
Buffer busy stall rate = 0.979177
Buffer conflict stall rate = 2.08472
Buffer full stall rate = 2.35176
Buffer reserved stall rate = 3.84154
Crossbar conflict stall rate = 3.0478
Class 1:
Packet latency average = 670.666
	minimum = 6
	maximum = 7892
Network latency average = 373.478
	minimum = 6
	maximum = 3781
Slowest packet = 56625
Flit latency average = 373.478
	minimum = 6
	maximum = 3781
Slowest flit = 206867
Fragmentation average = 0
	minimum = 0
	maximum = 0
Injected packet rate average = 0.325233
	minimum = 0.0969 (at node 23)
	maximum = 0.4297 (at node 21)
Accepted packet rate average = 0.313264
	minimum = 0.3007 (at node 37)
	maximum = 0.3215 (at node 8)
Injected flit rate average = 0.325233
	minimum = 0.0969 (at node 23)
	maximum = 0.4297 (at node 21)
Accepted flit rate average= 0.313264
	minimum = 0.3007 (at node 37)
	maximum = 0.3215 (at node 8)
Injected packet length average = 1
Accepted packet length average = 1
Total in-flight flits = 7691 (0 measured)
Buffer busy stall rate = 1.0073
Buffer conflict stall rate = 2.69681
Buffer full stall rate = 1.98344
Buffer reserved stall rate = 5.8146
Crossbar conflict stall rate = 5.78469
latency change    = 1
throughput change = 1
latency change    = 1
throughput change = 1
DVFS epoch t=10000 total_power=3.01624 headroom=-2.21624 avg_power=3.01624 domains{0:freq=1,power=3.01624} routers{0:freq=1,power=0.0424068, 1:freq=1,power=0.0444478, 2:freq=1,power=0.0460541, 3:freq=1,power=0.0468593, 4:freq=1,power=0.0468889, 5:freq=1,power=0.0461198, 6:freq=1,power=0.0445423, 7:freq=1,power=0.0422214, 8:freq=1,power=0.0444461, 9:freq=1,power=0.0462775, 10:freq=1,power=0.0478911, 11:freq=1,power=0.0486498, 12:freq=1,power=0.048706, 13:freq=1,power=0.0478616, 14:freq=1,power=0.0462883, 15:freq=1,power=0.044166, 16:freq=1,power=0.0457227, 17:freq=1,power=0.047352, 18:freq=1,power=0.0490503, 19:freq=1,power=0.0497542, 20:freq=1,power=0.0497809, 21:freq=1,power=0.0489245, 22:freq=1,power=0.0474088, 23:freq=1,power=0.0454053, 24:freq=1,power=0.0464961, 25:freq=1,power=0.0481973, 26:freq=1,power=0.0498711, 27:freq=1,power=0.0506138, 28:freq=1,power=0.0506573, 29:freq=1,power=0.0498439, 30:freq=1,power=0.0483114, 31:freq=1,power=0.0461333, 32:freq=1,power=0.0464603, 33:freq=1,power=0.0482387, 34:freq=1,power=0.0499091, 35:freq=1,power=0.0506724, 36:freq=1,power=0.050633, 37:freq=1,power=0.0498327, 38:freq=1,power=0.0483096, 39:freq=1,power=0.0461664, 40:freq=1,power=0.0458749, 41:freq=1,power=0.0476455, 42:freq=1,power=0.0492383, 43:freq=1,power=0.0499341, 44:freq=1,power=0.0498504, 45:freq=1,power=0.0490871, 46:freq=1,power=0.0475093, 47:freq=1,power=0.0454292, 48:freq=1,power=0.0445732, 49:freq=1,power=0.0463866, 50:freq=1,power=0.0479529, 51:freq=1,power=0.0486798, 52:freq=1,power=0.048656, 53:freq=1,power=0.0478771, 54:freq=1,power=0.046274, 55:freq=1,power=0.0441123, 56:freq=1,power=0.0423607, 57:freq=1,power=0.0445918, 58:freq=1,power=0.0461358, 59:freq=1,power=0.046865, 60:freq=1,power=0.0468698, 61:freq=1,power=0.0460723, 62:freq=1,power=0.0445478, 63:freq=1,power=0.0421421}
Class 0:
Packet latency average = 1052.89
	minimum = 6
	maximum = 10339
Network latency average = 894.46
	minimum = 6
	maximum = 10300
Slowest packet = 283596
Flit latency average = 894.46
	minimum = 6
	maximum = 10300
Slowest flit = 283596
Fragmentation average = 0
	minimum = 0
	maximum = 0
Injected packet rate average = 0.16163
	minimum = 0.1125 (at node 63)
	maximum = 0.18495 (at node 61)
Accepted packet rate average = 0.150232
	minimum = 0.1426 (at node 6)
	maximum = 0.15645 (at node 39)
Injected flit rate average = 0.16163
	minimum = 0.1125 (at node 63)
	maximum = 0.18495 (at node 61)
Accepted flit rate average= 0.150232
	minimum = 0.1426 (at node 6)
	maximum = 0.15645 (at node 39)
Injected packet length average = 1
Accepted packet length average = 1
Total in-flight flits = 14628 (0 measured)
Buffer busy stall rate = 1.41263
Buffer conflict stall rate = 2.20494
Buffer full stall rate = 2.79841
Buffer reserved stall rate = 3.44828
Crossbar conflict stall rate = 2.51201
Class 1:
Packet latency average = 1185.98
	minimum = 6
	maximum = 17048
Network latency average = 466.982
	minimum = 6
	maximum = 9898
Slowest packet = 56625
Flit latency average = 466.982
	minimum = 6
	maximum = 9898
Slowest flit = 322886
Fragmentation average = 0
	minimum = 0
	maximum = 0
Injected packet rate average = 0.205955
	minimum = 0.04845 (at node 23)
	maximum = 0.347 (at node 60)
Accepted packet rate average = 0.203162
	minimum = 0.19665 (at node 30)
	maximum = 0.2112 (at node 28)
Injected flit rate average = 0.205955
	minimum = 0.04845 (at node 23)
	maximum = 0.347 (at node 60)
Accepted flit rate average= 0.203162
	minimum = 0.19665 (at node 30)
	maximum = 0.2112 (at node 28)
Injected packet length average = 1
Accepted packet length average = 1
Total in-flight flits = 3635 (0 measured)
Buffer busy stall rate = 0.662382
Buffer conflict stall rate = 1.78071
Buffer full stall rate = 1.20785
Buffer reserved stall rate = 3.59764
Crossbar conflict stall rate = 3.71763
latency change    = 0.506465
throughput change = 0.119279
latency change    = 0.434506
throughput change = 0.541944
DVFS epoch t=20000 total_power=1.52085 headroom=-0.720852 avg_power=2.26854 domains{0:freq=0.5,power=1.52085} routers{0:freq=0.5,power=0.0215265, 1:freq=0.5,power=0.0222656, 2:freq=0.5,power=0.0231305, 3:freq=0.5,power=0.0238476, 4:freq=0.5,power=0.0238916, 5:freq=0.5,power=0.0232496, 6:freq=0.5,power=0.0221249, 7:freq=0.5,power=0.0213612, 8:freq=0.5,power=0.0225316, 9:freq=0.5,power=0.0232273, 10:freq=0.5,power=0.0241116, 11:freq=0.5,power=0.024776, 12:freq=0.5,power=0.0247825, 13:freq=0.5,power=0.0240526, 14:freq=0.5,power=0.0230099, 15:freq=0.5,power=0.0222903, 16:freq=0.5,power=0.0231494, 17:freq=0.5,power=0.0238119, 18:freq=0.5,power=0.0246707, 19:freq=0.5,power=0.025319, 20:freq=0.5,power=0.0253597, 21:freq=0.5,power=0.024663, 22:freq=0.5,power=0.0236352, 23:freq=0.5,power=0.0229446, 24:freq=0.5,power=0.023469, 25:freq=0.5,power=0.0241229, 26:freq=0.5,power=0.0250206, 27:freq=0.5,power=0.0257238, 28:freq=0.5,power=0.0257691, 29:freq=0.5,power=0.0250341, 30:freq=0.5,power=0.0240034, 31:freq=0.5,power=0.023209, 32:freq=0.5,power=0.0234599, 33:freq=0.5,power=0.0242076, 34:freq=0.5,power=0.0251071, 35:freq=0.5,power=0.0257086, 36:freq=0.5,power=0.0257116, 37:freq=0.5,power=0.025036, 38:freq=0.5,power=0.0239843, 39:freq=0.5,power=0.0232342, 40:freq=0.5,power=0.0231702, 41:freq=0.5,power=0.0238372, 42:freq=0.5,power=0.024682, 43:freq=0.5,power=0.0253153, 44:freq=0.5,power=0.0254008, 45:freq=0.5,power=0.0247601, 46:freq=0.5,power=0.0237156, 47:freq=0.5,power=0.0229247, 48:freq=0.5,power=0.0225872, 49:freq=0.5,power=0.0232875, 50:freq=0.5,power=0.02415, 51:freq=0.5,power=0.0247752, 52:freq=0.5,power=0.0248462, 53:freq=0.5,power=0.0241389, 54:freq=0.5,power=0.0230765, 55:freq=0.5,power=0.0222974, 56:freq=0.5,power=0.0214057, 57:freq=0.5,power=0.022353, 58:freq=0.5,power=0.0231374, 59:freq=0.5,power=0.0238246, 60:freq=0.5,power=0.023906, 61:freq=0.5,power=0.0232153, 62:freq=0.5,power=0.0221762, 63:freq=0.5,power=0.0213349}
Class 0:
Packet latency average = 2990.64
	minimum = 8
	maximum = 19417
Network latency average = 1543.21
	minimum = 8
	maximum = 18792
Slowest packet = 339132
Flit latency average = 1543.21
	minimum = 8
	maximum = 18792
Slowest flit = 339132
Fragmentation average = 0
	minimum = 0
	maximum = 0
Injected packet rate average = 0.145741
	minimum = 0.0449 (at node 7)
	maximum = 0.1888 (at node 4)
Accepted packet rate average = 0.145767
	minimum = 0.1364 (at node 56)
	maximum = 0.1601 (at node 3)
Injected flit rate average = 0.145741
	minimum = 0.0449 (at node 7)
	maximum = 0.1888 (at node 4)
Accepted flit rate average= 0.145767
	minimum = 0.1364 (at node 56)
	maximum = 0.1601 (at node 3)
Injected packet length average = 1
Accepted packet length average = 1
Total in-flight flits = 14610 (0 measured)
Buffer busy stall rate = 2.03934
Buffer conflict stall rate = 2.58044
Buffer full stall rate = 3.43089
Buffer reserved stall rate = 3.55372
Crossbar conflict stall rate = 2.10587
Class 1:
Packet latency average = 8481.77
	minimum = 3500
	maximum = 25207
Network latency average = 730.998
	minimum = 9
	maximum = 17589
Slowest packet = 319283
Flit latency average = 730.998
	minimum = 9
	maximum = 17589
Slowest flit = 324026
Fragmentation average = 0
	minimum = 0
	maximum = 0
Injected packet rate average = 0.0790672
	minimum = 0 (at node 0)
	maximum = 0.2533 (at node 4)
Accepted packet rate average = 0.0788406
	minimum = 0.0714 (at node 60)
	maximum = 0.0865 (at node 41)
Injected flit rate average = 0.0790672
	minimum = 0 (at node 0)
	maximum = 0.2533 (at node 4)
Accepted flit rate average= 0.0788406
	minimum = 0.0714 (at node 60)
	maximum = 0.0865 (at node 41)
Injected packet length average = 1
Accepted packet length average = 1
Total in-flight flits = 3779 (0 measured)
Buffer busy stall rate = 0.109114
Buffer conflict stall rate = 0.593314
Buffer full stall rate = 0.215728
Buffer reserved stall rate = 1.26536
Crossbar conflict stall rate = 1.33242
latency change    = 0.647938
throughput change = 0.03063
latency change    = 0.860173
throughput change = 1.57687
Average latency for class 1 exceeded 5000 cycles. Aborting simulation.
Too many sample periods needed to converge
Simulation unstable, ending ...
Total run time 30.0349
1.85573e-13
1.01182e-14
8.2655e-14
1.09233e-13
1.89983e-13
5.84568e-13
3.37458e-13
1.11201e-12
8.52002e-14
1.49959e-12
4.63932e-14
1.01182e-14
2.06637e-14
1.56046e-14
1.89983e-13
8.35097e-14
8.43644e-14
3.57857e-13
2.13e-14
4.50637e-13
2.31966e-14
1.01182e-14
3.3062e-13
4.83744e-13
1.89983e-13
2.5888e-12
1.34983e-12
4.12861e-12
3.40801e-13
4.97629e-12
2.8975e-11
4.20498e-11
1.85573e-13
1.01182e-14
8.2655e-14
1.09233e-13
1.89983e-13
5.84568e-13
3.37458e-13
1.11201e-12
8.52002e-14
1.49959e-12
4.63932e-14
1.01182e-14
2.06637e-14
1.56046e-14
1.89983e-13
8.35097e-14
8.43644e-14
3.57857e-13
2.13e-14
4.50637e-13
2.31966e-14
1.01182e-14
3.3062e-13
4.83744e-13
1.89983e-13
2.5888e-12
1.34983e-12
4.12861e-12
3.40801e-13
4.97629e-12
2.8975e-11
4.38807e-11
1.85573e-13
1.01182e-14
8.2655e-14
1.09233e-13
1.89983e-13
5.84568e-13
3.37458e-13
1.11201e-12
8.52002e-14
1.49959e-12
4.63932e-14
1.01182e-14
2.06637e-14
1.56046e-14
1.89983e-13
8.35097e-14
8.43644e-14
3.57857e-13
2.13e-14
4.50637e-13
2.31966e-14
1.01182e-14
3.3062e-13
4.83744e-13
1.89983e-13
2.5888e-12
1.34983e-12
4.12861e-12
3.40801e-13
4.97629e-12
2.8975e-11
4.53175e-11
1.85573e-13
1.01182e-14
8.2655e-14
1.09233e-13
1.89983e-13
5.84568e-13
3.37458e-13
1.11201e-12
8.52002e-14
1.49959e-12
4.63932e-14
1.01182e-14
2.06637e-14
1.56046e-14
1.89983e-13
8.35097e-14
8.43644e-14
3.57857e-13
2.13e-14
4.50637e-13
2.31966e-14
1.01182e-14
3.3062e-13
4.83744e-13
1.89983e-13
2.5888e-12
1.34983e-12
4.12861e-12
3.40801e-13
4.97629e-12
2.8975e-11
4.60401e-11
1.85573e-13
1.01182e-14
8.2655e-14
1.09233e-13
1.89983e-13
5.84568e-13
3.37458e-13
1.11201e-12
8.52002e-14
1.49959e-12
4.63932e-14
1.01182e-14
2.06637e-14
1.56046e-14
1.89983e-13
8.35097e-14
8.43644e-14
3.57857e-13
2.13e-14
4.50637e-13
2.31966e-14
1.01182e-14
3.3062e-13
4.83744e-13
1.89983e-13
2.5888e-12
1.34983e-12
4.12861e-12
3.40801e-13
4.97629e-12
2.8975e-11
4.60666e-11
1.85573e-13
1.01182e-14
8.2655e-14
1.09233e-13
1.89983e-13
5.84568e-13
3.37458e-13
1.11201e-12
8.52002e-14
1.49959e-12
4.63932e-14
1.01182e-14
2.06637e-14
1.56046e-14
1.89983e-13
8.35097e-14
8.43644e-14
3.57857e-13
2.13e-14
4.50637e-13
2.31966e-14
1.01182e-14
3.3062e-13
4.83744e-13
1.89983e-13
2.5888e-12
1.34983e-12
4.12861e-12
3.40801e-13
4.97629e-12
2.8975e-11
4.53755e-11
1.85573e-13
1.01182e-14
8.2655e-14
1.09233e-13
1.89983e-13
5.84568e-13
3.37458e-13
1.11201e-12
8.52002e-14
1.49959e-12
4.63932e-14
1.01182e-14
2.06637e-14
1.56046e-14
1.89983e-13
8.35097e-14
8.43644e-14
3.57857e-13
2.13e-14
4.50637e-13
2.31966e-14
1.01182e-14
3.3062e-13
4.83744e-13
1.89983e-13
2.5888e-12
1.34983e-12
4.12861e-12
3.40801e-13
4.97629e-12
2.8975e-11
4.39654e-11
1.85573e-13
1.01182e-14
8.2655e-14
1.09233e-13
1.89983e-13
5.84568e-13
3.37458e-13
1.11201e-12
8.52002e-14
1.49959e-12
4.63932e-14
1.01182e-14
2.06637e-14
1.56046e-14
1.89983e-13
8.35097e-14
8.43644e-14
3.57857e-13
2.13e-14
4.50637e-13
2.31966e-14
1.01182e-14
3.3062e-13
4.83744e-13
1.89983e-13
2.5888e-12
1.34983e-12
4.12861e-12
3.40801e-13
4.97629e-12
2.8975e-11
4.18838e-11
1.85573e-13
1.01182e-14
8.2655e-14
1.09233e-13
1.89983e-13
5.84568e-13
3.37458e-13
1.11201e-12
8.52002e-14
1.49959e-12
4.63932e-14
1.01182e-14
2.06637e-14
1.56046e-14
1.89983e-13
8.35097e-14
8.43644e-14
3.57857e-13
2.13e-14
4.50637e-13
2.31966e-14
1.01182e-14
3.3062e-13
4.83744e-13
1.89983e-13
2.5888e-12
1.34983e-12
4.12861e-12
3.40801e-13
4.97629e-12
2.8975e-11
4.3876e-11
1.85573e-13
1.01182e-14
8.2655e-14
1.09233e-13
1.89983e-13
5.84568e-13
3.37458e-13
1.11201e-12
8.52002e-14
1.49959e-12
4.63932e-14
1.01182e-14
2.06637e-14
1.56046e-14
1.89983e-13
8.35097e-14
8.43644e-14
3.57857e-13
2.13e-14
4.50637e-13
2.31966e-14
1.01182e-14
3.3062e-13
4.83744e-13
1.89983e-13
2.5888e-12
1.34983e-12
4.12861e-12
3.40801e-13
4.97629e-12
2.8975e-11
4.55195e-11
1.85573e-13
1.01182e-14
8.2655e-14
1.09233e-13
1.89983e-13
5.84568e-13
3.37458e-13
1.11201e-12
8.52002e-14
1.49959e-12
4.63932e-14
1.01182e-14
2.06637e-14
1.56046e-14
1.89983e-13
8.35097e-14
8.43644e-14
3.57857e-13
2.13e-14
4.50637e-13
2.31966e-14
1.01182e-14
3.3062e-13
4.83744e-13
1.89983e-13
2.5888e-12
1.34983e-12
4.12861e-12
3.40801e-13
4.97629e-12
2.8975e-11
4.69647e-11
1.85573e-13
1.01182e-14
8.2655e-14
1.09233e-13
1.89983e-13
5.84568e-13
3.37458e-13
1.11201e-12
8.52002e-14
1.49959e-12
4.63932e-14
1.01182e-14
2.06637e-14
1.56046e-14
1.89983e-13
8.35097e-14
8.43644e-14
3.57857e-13
2.13e-14
4.50637e-13
2.31966e-14
1.01182e-14
3.3062e-13
4.83744e-13
1.89983e-13
2.5888e-12
1.34983e-12
4.12861e-12
3.40801e-13
4.97629e-12
2.8975e-11
4.76438e-11
1.85573e-13
1.01182e-14
8.2655e-14
1.09233e-13
1.89983e-13
5.84568e-13
3.37458e-13
1.11201e-12
8.52002e-14
1.49959e-12
4.63932e-14
1.01182e-14
2.06637e-14
1.56046e-14
1.89983e-13
8.35097e-14
8.43644e-14
3.57857e-13
2.13e-14
4.50637e-13
2.31966e-14
1.01182e-14
3.3062e-13
4.83744e-13
1.89983e-13
2.5888e-12
1.34983e-12
4.12861e-12
3.40801e-13
4.97629e-12
2.8975e-11
4.76938e-11
1.85573e-13
1.01182e-14
8.2655e-14
1.09233e-13
1.89983e-13
5.84568e-13
3.37458e-13
1.11201e-12
8.52002e-14
1.49959e-12
4.63932e-14
1.01182e-14
2.06637e-14
1.56046e-14
1.89983e-13
8.35097e-14
8.43644e-14
3.57857e-13
2.13e-14
4.50637e-13
2.31966e-14
1.01182e-14
3.3062e-13
4.83744e-13
1.89983e-13
2.5888e-12
1.34983e-12
4.12861e-12
3.40801e-13
4.97629e-12
2.8975e-11
4.6936e-11
1.85573e-13
1.01182e-14
8.2655e-14
1.09233e-13
1.89983e-13
5.84568e-13
3.37458e-13
1.11201e-12
8.52002e-14
1.49959e-12
4.63932e-14
1.01182e-14
2.06637e-14
1.56046e-14
1.89983e-13
8.35097e-14
8.43644e-14
3.57857e-13
2.13e-14
4.50637e-13
2.31966e-14
1.01182e-14
3.3062e-13
4.83744e-13
1.89983e-13
2.5888e-12
1.34983e-12
4.12861e-12
3.40801e-13
4.97629e-12
2.8975e-11
4.5529e-11
1.85573e-13
1.01182e-14
8.2655e-14
1.09233e-13
1.89983e-13
5.84568e-13
3.37458e-13
1.11201e-12
8.52002e-14
1.49959e-12
4.63932e-14
1.01182e-14
2.06637e-14
1.56046e-14
1.89983e-13
8.35097e-14
8.43644e-14
3.57857e-13
2.13e-14
4.50637e-13
2.31966e-14
1.01182e-14
3.3062e-13
4.83744e-13
1.89983e-13
2.5888e-12
1.34983e-12
4.12861e-12
3.40801e-13
4.97629e-12
2.8975e-11
4.36254e-11
1.85573e-13
1.01182e-14
8.2655e-14
1.09233e-13
1.89983e-13
5.84568e-13
3.37458e-13
1.11201e-12
8.52002e-14
1.49959e-12
4.63932e-14
1.01182e-14
2.06637e-14
1.56046e-14
1.89983e-13
8.35097e-14
8.43644e-14
3.57857e-13
2.13e-14
4.50637e-13
2.31966e-14
1.01182e-14
3.3062e-13
4.83744e-13
1.89983e-13
2.5888e-12
1.34983e-12
4.12861e-12
3.40801e-13
4.97629e-12
2.8975e-11
4.50194e-11
1.85573e-13
1.01182e-14
8.2655e-14
1.09233e-13
1.89983e-13
5.84568e-13
3.37458e-13
1.11201e-12
8.52002e-14
1.49959e-12
4.63932e-14
1.01182e-14
2.06637e-14
1.56046e-14
1.89983e-13
8.35097e-14
8.43644e-14
3.57857e-13
2.13e-14
4.50637e-13
2.31966e-14
1.01182e-14
3.3062e-13
4.83744e-13
1.89983e-13
2.5888e-12
1.34983e-12
4.12861e-12
3.40801e-13
4.97629e-12
2.8975e-11
4.64818e-11
1.85573e-13
1.01182e-14
8.2655e-14
1.09233e-13
1.89983e-13
5.84568e-13
3.37458e-13
1.11201e-12
8.52002e-14
1.49959e-12
4.63932e-14
1.01182e-14
2.06637e-14
1.56046e-14
1.89983e-13
8.35097e-14
8.43644e-14
3.57857e-13
2.13e-14
4.50637e-13
2.31966e-14
1.01182e-14
3.3062e-13
4.83744e-13
1.89983e-13
2.5888e-12
1.34983e-12
4.12861e-12
3.40801e-13
4.97629e-12
2.8975e-11
4.80042e-11
1.85573e-13
1.01182e-14
8.2655e-14
1.09233e-13
1.89983e-13
5.84568e-13
3.37458e-13
1.11201e-12
8.52002e-14
1.49959e-12
4.63932e-14
1.01182e-14
2.06637e-14
1.56046e-14
1.89983e-13
8.35097e-14
8.43644e-14
3.57857e-13
2.13e-14
4.50637e-13
2.31966e-14
1.01182e-14
3.3062e-13
4.83744e-13
1.89983e-13
2.5888e-12
1.34983e-12
4.12861e-12
3.40801e-13
4.97629e-12
2.8975e-11
4.86337e-11
1.85573e-13
1.01182e-14
8.2655e-14
1.09233e-13
1.89983e-13
5.84568e-13
3.37458e-13
1.11201e-12
8.52002e-14
1.49959e-12
4.63932e-14
1.01182e-14
2.06637e-14
1.56046e-14
1.89983e-13
8.35097e-14
8.43644e-14
3.57857e-13
2.13e-14
4.50637e-13
2.31966e-14
1.01182e-14
3.3062e-13
4.83744e-13
1.89983e-13
2.5888e-12
1.34983e-12
4.12861e-12
3.40801e-13
4.97629e-12
2.8975e-11
4.86567e-11
1.85573e-13
1.01182e-14
8.2655e-14
1.09233e-13
1.89983e-13
5.84568e-13
3.37458e-13
1.11201e-12
8.52002e-14
1.49959e-12
4.63932e-14
1.01182e-14
2.06637e-14
1.56046e-14
1.89983e-13
8.35097e-14
8.43644e-14
3.57857e-13
2.13e-14
4.50637e-13
2.31966e-14
1.01182e-14
3.3062e-13
4.83744e-13
1.89983e-13
2.5888e-12
1.34983e-12
4.12861e-12
3.40801e-13
4.97629e-12
2.8975e-11
4.78883e-11
1.85573e-13
1.01182e-14
8.2655e-14
1.09233e-13
1.89983e-13
5.84568e-13
3.37458e-13
1.11201e-12
8.52002e-14
1.49959e-12
4.63932e-14
1.01182e-14
2.06637e-14
1.56046e-14
1.89983e-13
8.35097e-14
8.43644e-14
3.57857e-13
2.13e-14
4.50637e-13
2.31966e-14
1.01182e-14
3.3062e-13
4.83744e-13
1.89983e-13
2.5888e-12
1.34983e-12
4.12861e-12
3.40801e-13
4.97629e-12
2.8975e-11
4.65327e-11
1.85573e-13
1.01182e-14
8.2655e-14
1.09233e-13
1.89983e-13
5.84568e-13
3.37458e-13
1.11201e-12
8.52002e-14
1.49959e-12
4.63932e-14
1.01182e-14
2.06637e-14
1.56046e-14
1.89983e-13
8.35097e-14
8.43644e-14
3.57857e-13
2.13e-14
4.50637e-13
2.31966e-14
1.01182e-14
3.3062e-13
4.83744e-13
1.89983e-13
2.5888e-12
1.34983e-12
4.12861e-12
3.40801e-13
4.97629e-12
2.8975e-11
4.47351e-11
1.85573e-13
1.01182e-14
8.2655e-14
1.09233e-13
1.89983e-13
5.84568e-13
3.37458e-13
1.11201e-12
8.52002e-14
1.49959e-12
4.63932e-14
1.01182e-14
2.06637e-14
1.56046e-14
1.89983e-13
8.35097e-14
8.43644e-14
3.57857e-13
2.13e-14
4.50637e-13
2.31966e-14
1.01182e-14
3.3062e-13
4.83744e-13
1.89983e-13
2.5888e-12
1.34983e-12
4.12861e-12
3.40801e-13
4.97629e-12
2.8975e-11
4.57125e-11
1.85573e-13
1.01182e-14
8.2655e-14
1.09233e-13
1.89983e-13
5.84568e-13
3.37458e-13
1.11201e-12
8.52002e-14
1.49959e-12
4.63932e-14
1.01182e-14
2.06637e-14
1.56046e-14
1.89983e-13
8.35097e-14
8.43644e-14
3.57857e-13
2.13e-14
4.50637e-13
2.31966e-14
1.01182e-14
3.3062e-13
4.83744e-13
1.89983e-13
2.5888e-12
1.34983e-12
4.12861e-12
3.40801e-13
4.97629e-12
2.8975e-11
4.72384e-11
1.85573e-13
1.01182e-14
8.2655e-14
1.09233e-13
1.89983e-13
5.84568e-13
3.37458e-13
1.11201e-12
8.52002e-14
1.49959e-12
4.63932e-14
1.01182e-14
2.06637e-14
1.56046e-14
1.89983e-13
8.35097e-14
8.43644e-14
3.57857e-13
2.13e-14
4.50637e-13
2.31966e-14
1.01182e-14
3.3062e-13
4.83744e-13
1.89983e-13
2.5888e-12
1.34983e-12
4.12861e-12
3.40801e-13
4.97629e-12
2.8975e-11
4.87365e-11
1.85573e-13
1.01182e-14
8.2655e-14
1.09233e-13
1.89983e-13
5.84568e-13
3.37458e-13
1.11201e-12
8.52002e-14
1.49959e-12
4.63932e-14
1.01182e-14
2.06637e-14
1.56046e-14
1.89983e-13
8.35097e-14
8.43644e-14
3.57857e-13
2.13e-14
4.50637e-13
2.31966e-14
1.01182e-14
3.3062e-13
4.83744e-13
1.89983e-13
2.5888e-12
1.34983e-12
4.12861e-12
3.40801e-13
4.97629e-12
2.8975e-11
4.94031e-11
1.85573e-13
1.01182e-14
8.2655e-14
1.09233e-13
1.89983e-13
5.84568e-13
3.37458e-13
1.11201e-12
8.52002e-14
1.49959e-12
4.63932e-14
1.01182e-14
2.06637e-14
1.56046e-14
1.89983e-13
8.35097e-14
8.43644e-14
3.57857e-13
2.13e-14
4.50637e-13
2.31966e-14
1.01182e-14
3.3062e-13
4.83744e-13
1.89983e-13
2.5888e-12
1.34983e-12
4.12861e-12
3.40801e-13
4.97629e-12
2.8975e-11
4.94426e-11
1.85573e-13
1.01182e-14
8.2655e-14
1.09233e-13
1.89983e-13
5.84568e-13
3.37458e-13
1.11201e-12
8.52002e-14
1.49959e-12
4.63932e-14
1.01182e-14
2.06637e-14
1.56046e-14
1.89983e-13
8.35097e-14
8.43644e-14
3.57857e-13
2.13e-14
4.50637e-13
2.31966e-14
1.01182e-14
3.3062e-13
4.83744e-13
1.89983e-13
2.5888e-12
1.34983e-12
4.12861e-12
3.40801e-13
4.97629e-12
2.8975e-11
4.87108e-11
1.85573e-13
1.01182e-14
8.2655e-14
1.09233e-13
1.89983e-13
5.84568e-13
3.37458e-13
1.11201e-12
8.52002e-14
1.49959e-12
4.63932e-14
1.01182e-14
2.06637e-14
1.56046e-14
1.89983e-13
8.35097e-14
8.43644e-14
3.57857e-13
2.13e-14
4.50637e-13
2.31966e-14
1.01182e-14
3.3062e-13
4.83744e-13
1.89983e-13
2.5888e-12
1.34983e-12
4.12861e-12
3.40801e-13
4.97629e-12
2.8975e-11
4.73412e-11
1.85573e-13
1.01182e-14
8.2655e-14
1.09233e-13
1.89983e-13
5.84568e-13
3.37458e-13
1.11201e-12
8.52002e-14
1.49959e-12
4.63932e-14
1.01182e-14
2.06637e-14
1.56046e-14
1.89983e-13
8.35097e-14
8.43644e-14
3.57857e-13
2.13e-14
4.50637e-13
2.31966e-14
1.01182e-14
3.3062e-13
4.83744e-13
1.89983e-13
2.5888e-12
1.34983e-12
4.12861e-12
3.40801e-13
4.97629e-12
2.8975e-11
4.53877e-11
1.85573e-13
1.01182e-14
8.2655e-14
1.09233e-13
1.89983e-13
5.84568e-13
3.37458e-13
1.11201e-12
8.52002e-14
1.49959e-12
4.63932e-14
1.01182e-14
2.06637e-14
1.56046e-14
1.89983e-13
8.35097e-14
8.43644e-14
3.57857e-13
2.13e-14
4.50637e-13
2.31966e-14
1.01182e-14
3.3062e-13
4.83744e-13
1.89983e-13
2.5888e-12
1.34983e-12
4.12861e-12
3.40801e-13
4.97629e-12
2.8975e-11
4.56808e-11
1.85573e-13
1.01182e-14
8.2655e-14
1.09233e-13
1.89983e-13
5.84568e-13
3.37458e-13
1.11201e-12
8.52002e-14
1.49959e-12
4.63932e-14
1.01182e-14
2.06637e-14
1.56046e-14
1.89983e-13
8.35097e-14
8.43644e-14
3.57857e-13
2.13e-14
4.50637e-13
2.31966e-14
1.01182e-14
3.3062e-13
4.83744e-13
1.89983e-13
2.5888e-12
1.34983e-12
4.12861e-12
3.40801e-13
4.97629e-12
2.8975e-11
4.72767e-11
1.85573e-13
1.01182e-14
8.2655e-14
1.09233e-13
1.89983e-13
5.84568e-13
3.37458e-13
1.11201e-12
8.52002e-14
1.49959e-12
4.63932e-14
1.01182e-14
2.06637e-14
1.56046e-14
1.89983e-13
8.35097e-14
8.43644e-14
3.57857e-13
2.13e-14
4.50637e-13
2.31966e-14
1.01182e-14
3.3062e-13
4.83744e-13
1.89983e-13
2.5888e-12
1.34983e-12
4.12861e-12
3.40801e-13
4.97629e-12
2.8975e-11
4.87722e-11
1.85573e-13
1.01182e-14
8.2655e-14
1.09233e-13
1.89983e-13
5.84568e-13
3.37458e-13
1.11201e-12
8.52002e-14
1.49959e-12
4.63932e-14
1.01182e-14
2.06637e-14
1.56046e-14
1.89983e-13
8.35097e-14
8.43644e-14
3.57857e-13
2.13e-14
4.50637e-13
2.31966e-14
1.01182e-14
3.3062e-13
4.83744e-13
1.89983e-13
2.5888e-12
1.34983e-12
4.12861e-12
3.40801e-13
4.97629e-12
2.8975e-11
4.94554e-11
1.85573e-13
1.01182e-14
8.2655e-14
1.09233e-13
1.89983e-13
5.84568e-13
3.37458e-13
1.11201e-12
8.52002e-14
1.49959e-12
4.63932e-14
1.01182e-14
2.06637e-14
1.56046e-14
1.89983e-13
8.35097e-14
8.43644e-14
3.57857e-13
2.13e-14
4.50637e-13
2.31966e-14
1.01182e-14
3.3062e-13
4.83744e-13
1.89983e-13
2.5888e-12
1.34983e-12
4.12861e-12
3.40801e-13
4.97629e-12
2.8975e-11
4.94207e-11
1.85573e-13
1.01182e-14
8.2655e-14
1.09233e-13
1.89983e-13
5.84568e-13
3.37458e-13
1.11201e-12
8.52002e-14
1.49959e-12
4.63932e-14
1.01182e-14
2.06637e-14
1.56046e-14
1.89983e-13
8.35097e-14
8.43644e-14
3.57857e-13
2.13e-14
4.50637e-13
2.31966e-14
1.01182e-14
3.3062e-13
4.83744e-13
1.89983e-13
2.5888e-12
1.34983e-12
4.12861e-12
3.40801e-13
4.97629e-12
2.8975e-11
4.8701e-11
1.85573e-13
1.01182e-14
8.2655e-14
1.09233e-13
1.89983e-13
5.84568e-13
3.37458e-13
1.11201e-12
8.52002e-14
1.49959e-12
4.63932e-14
1.01182e-14
2.06637e-14
1.56046e-14
1.89983e-13
8.35097e-14
8.43644e-14
3.57857e-13
2.13e-14
4.50637e-13
2.31966e-14
1.01182e-14
3.3062e-13
4.83744e-13
1.89983e-13
2.5888e-12
1.34983e-12
4.12861e-12
3.40801e-13
4.97629e-12
2.8975e-11
4.73403e-11
1.85573e-13
1.01182e-14
8.2655e-14
1.09233e-13
1.89983e-13
5.84568e-13
3.37458e-13
1.11201e-12
8.52002e-14
1.49959e-12
4.63932e-14
1.01182e-14
2.06637e-14
1.56046e-14
1.89983e-13
8.35097e-14
8.43644e-14
3.57857e-13
2.13e-14
4.50637e-13
2.31966e-14
1.01182e-14
3.3062e-13
4.83744e-13
1.89983e-13
2.5888e-12
1.34983e-12
4.12861e-12
3.40801e-13
4.97629e-12
2.8975e-11
4.54177e-11
1.85573e-13
1.01182e-14
8.2655e-14
1.09233e-13
1.89983e-13
5.84568e-13
3.37458e-13
1.11201e-12
8.52002e-14
1.49959e-12
4.63932e-14
1.01182e-14
2.06637e-14
1.56046e-14
1.89983e-13
8.35097e-14
8.43644e-14
3.57857e-13
2.13e-14
4.50637e-13
2.31966e-14
1.01182e-14
3.3062e-13
4.83744e-13
1.89983e-13
2.5888e-12
1.34983e-12
4.12861e-12
3.40801e-13
4.97629e-12
2.8975e-11
4.5156e-11
1.85573e-13
1.01182e-14
8.2655e-14
1.09233e-13
1.89983e-13
5.84568e-13
3.37458e-13
1.11201e-12
8.52002e-14
1.49959e-12
4.63932e-14
1.01182e-14
2.06637e-14
1.56046e-14
1.89983e-13
8.35097e-14
8.43644e-14
3.57857e-13
2.13e-14
4.50637e-13
2.31966e-14
1.01182e-14
3.3062e-13
4.83744e-13
1.89983e-13
2.5888e-12
1.34983e-12
4.12861e-12
3.40801e-13
4.97629e-12
2.8975e-11
4.67448e-11
1.85573e-13
1.01182e-14
8.2655e-14
1.09233e-13
1.89983e-13
5.84568e-13
3.37458e-13
1.11201e-12
8.52002e-14
1.49959e-12
4.63932e-14
1.01182e-14
2.06637e-14
1.56046e-14
1.89983e-13
8.35097e-14
8.43644e-14
3.57857e-13
2.13e-14
4.50637e-13
2.31966e-14
1.01182e-14
3.3062e-13
4.83744e-13
1.89983e-13
2.5888e-12
1.34983e-12
4.12861e-12
3.40801e-13
4.97629e-12
2.8975e-11
4.8172e-11
1.85573e-13
1.01182e-14
8.2655e-14
1.09233e-13
1.89983e-13
5.84568e-13
3.37458e-13
1.11201e-12
8.52002e-14
1.49959e-12
4.63932e-14
1.01182e-14
2.06637e-14
1.56046e-14
1.89983e-13
8.35097e-14
8.43644e-14
3.57857e-13
2.13e-14
4.50637e-13
2.31966e-14
1.01182e-14
3.3062e-13
4.83744e-13
1.89983e-13
2.5888e-12
1.34983e-12
4.12861e-12
3.40801e-13
4.97629e-12
2.8975e-11
4.87945e-11
1.85573e-13
1.01182e-14
8.2655e-14
1.09233e-13
1.89983e-13
5.84568e-13
3.37458e-13
1.11201e-12
8.52002e-14
1.49959e-12
4.63932e-14
1.01182e-14
2.06637e-14
1.56046e-14
1.89983e-13
8.35097e-14
8.43644e-14
3.57857e-13
2.13e-14
4.50637e-13
2.31966e-14
1.01182e-14
3.3062e-13
4.83744e-13
1.89983e-13
2.5888e-12
1.34983e-12
4.12861e-12
3.40801e-13
4.97629e-12
2.8975e-11
4.87203e-11
1.85573e-13
1.01182e-14
8.2655e-14
1.09233e-13
1.89983e-13
5.84568e-13
3.37458e-13
1.11201e-12
8.52002e-14
1.49959e-12
4.63932e-14
1.01182e-14
2.06637e-14
1.56046e-14
1.89983e-13
8.35097e-14
8.43644e-14
3.57857e-13
2.13e-14
4.50637e-13
2.31966e-14
1.01182e-14
3.3062e-13
4.83744e-13
1.89983e-13
2.5888e-12
1.34983e-12
4.12861e-12
3.40801e-13
4.97629e-12
2.8975e-11
4.80336e-11
1.85573e-13
1.01182e-14
8.2655e-14
1.09233e-13
1.89983e-13
5.84568e-13
3.37458e-13
1.11201e-12
8.52002e-14
1.49959e-12
4.63932e-14
1.01182e-14
2.06637e-14
1.56046e-14
1.89983e-13
8.35097e-14
8.43644e-14
3.57857e-13
2.13e-14
4.50637e-13
2.31966e-14
1.01182e-14
3.3062e-13
4.83744e-13
1.89983e-13
2.5888e-12
1.34983e-12
4.12861e-12
3.40801e-13
4.97629e-12
2.8975e-11
4.66228e-11
1.85573e-13
1.01182e-14
8.2655e-14
1.09233e-13
1.89983e-13
5.84568e-13
3.37458e-13
1.11201e-12
8.52002e-14
1.49959e-12
4.63932e-14
1.01182e-14
2.06637e-14
1.56046e-14
1.89983e-13
8.35097e-14
8.43644e-14
3.57857e-13
2.13e-14
4.50637e-13
2.31966e-14
1.01182e-14
3.3062e-13
4.83744e-13
1.89983e-13
2.5888e-12
1.34983e-12
4.12861e-12
3.40801e-13
4.97629e-12
2.8975e-11
4.47571e-11
1.85573e-13
1.01182e-14
8.2655e-14
1.09233e-13
1.89983e-13
5.84568e-13
3.37458e-13
1.11201e-12
8.52002e-14
1.49959e-12
4.63932e-14
1.01182e-14
2.06637e-14
1.56046e-14
1.89983e-13
8.35097e-14
8.43644e-14
3.57857e-13
2.13e-14
4.50637e-13
2.31966e-14
1.01182e-14
3.3062e-13
4.83744e-13
1.89983e-13
2.5888e-12
1.34983e-12
4.12861e-12
3.40801e-13
4.97629e-12
2.8975e-11
4.39901e-11
1.85573e-13
1.01182e-14
8.2655e-14
1.09233e-13
1.89983e-13
5.84568e-13
3.37458e-13
1.11201e-12
8.52002e-14
1.49959e-12
4.63932e-14
1.01182e-14
2.06637e-14
1.56046e-14
1.89983e-13
8.35097e-14
8.43644e-14
3.57857e-13
2.13e-14
4.50637e-13
2.31966e-14
1.01182e-14
3.3062e-13
4.83744e-13
1.89983e-13
2.5888e-12
1.34983e-12
4.12861e-12
3.40801e-13
4.97629e-12
2.8975e-11
4.56173e-11
1.85573e-13
1.01182e-14
8.2655e-14
1.09233e-13
1.89983e-13
5.84568e-13
3.37458e-13
1.11201e-12
8.52002e-14
1.49959e-12
4.63932e-14
1.01182e-14
2.06637e-14
1.56046e-14
1.89983e-13
8.35097e-14
8.43644e-14
3.57857e-13
2.13e-14
4.50637e-13
2.31966e-14
1.01182e-14
3.3062e-13
4.83744e-13
1.89983e-13
2.5888e-12
1.34983e-12
4.12861e-12
3.40801e-13
4.97629e-12
2.8975e-11
4.70194e-11
1.85573e-13
1.01182e-14
8.2655e-14
1.09233e-13
1.89983e-13
5.84568e-13
3.37458e-13
1.11201e-12
8.52002e-14
1.49959e-12
4.63932e-14
1.01182e-14
2.06637e-14
1.56046e-14
1.89983e-13
8.35097e-14
8.43644e-14
3.57857e-13
2.13e-14
4.50637e-13
2.31966e-14
1.01182e-14
3.3062e-13
4.83744e-13
1.89983e-13
2.5888e-12
1.34983e-12
4.12861e-12
3.40801e-13
4.97629e-12
2.8975e-11
4.76708e-11
1.85573e-13
1.01182e-14
8.2655e-14
1.09233e-13
1.89983e-13
5.84568e-13
3.37458e-13
1.11201e-12
8.52002e-14
1.49959e-12
4.63932e-14
1.01182e-14
2.06637e-14
1.56046e-14
1.89983e-13
8.35097e-14
8.43644e-14
3.57857e-13
2.13e-14
4.50637e-13
2.31966e-14
1.01182e-14
3.3062e-13
4.83744e-13
1.89983e-13
2.5888e-12
1.34983e-12
4.12861e-12
3.40801e-13
4.97629e-12
2.8975e-11
4.76493e-11
1.85573e-13
1.01182e-14
8.2655e-14
1.09233e-13
1.89983e-13
5.84568e-13
3.37458e-13
1.11201e-12
8.52002e-14
1.49959e-12
4.63932e-14
1.01182e-14
2.06637e-14
1.56046e-14
1.89983e-13
8.35097e-14
8.43644e-14
3.57857e-13
2.13e-14
4.50637e-13
2.31966e-14
1.01182e-14
3.3062e-13
4.83744e-13
1.89983e-13
2.5888e-12
1.34983e-12
4.12861e-12
3.40801e-13
4.97629e-12
2.8975e-11
4.69499e-11
1.85573e-13
1.01182e-14
8.2655e-14
1.09233e-13
1.89983e-13
5.84568e-13
3.37458e-13
1.11201e-12
8.52002e-14
1.49959e-12
4.63932e-14
1.01182e-14
2.06637e-14
1.56046e-14
1.89983e-13
8.35097e-14
8.43644e-14
3.57857e-13
2.13e-14
4.50637e-13
2.31966e-14
1.01182e-14
3.3062e-13
4.83744e-13
1.89983e-13
2.5888e-12
1.34983e-12
4.12861e-12
3.40801e-13
4.97629e-12
2.8975e-11
4.5516e-11
1.85573e-13
1.01182e-14
8.2655e-14
1.09233e-13
1.89983e-13
5.84568e-13
3.37458e-13
1.11201e-12
8.52002e-14
1.49959e-12
4.63932e-14
1.01182e-14
2.06637e-14
1.56046e-14
1.89983e-13
8.35097e-14
8.43644e-14
3.57857e-13
2.13e-14
4.50637e-13
2.31966e-14
1.01182e-14
3.3062e-13
4.83744e-13
1.89983e-13
2.5888e-12
1.34983e-12
4.12861e-12
3.40801e-13
4.97629e-12
2.8975e-11
4.35774e-11
1.85573e-13
1.01182e-14
8.2655e-14
1.09233e-13
1.89983e-13
5.84568e-13
3.37458e-13
1.11201e-12
8.52002e-14
1.49959e-12
4.63932e-14
1.01182e-14
2.06637e-14
1.56046e-14
1.89983e-13
8.35097e-14
8.43644e-14
3.57857e-13
2.13e-14
4.50637e-13
2.31966e-14
1.01182e-14
3.3062e-13
4.83744e-13
1.89983e-13
2.5888e-12
1.34983e-12
4.12861e-12
3.40801e-13
4.97629e-12
2.8975e-11
4.20085e-11
1.85573e-13
1.01182e-14
8.2655e-14
1.09233e-13
1.89983e-13
5.84568e-13
3.37458e-13
1.11201e-12
8.52002e-14
1.49959e-12
4.63932e-14
1.01182e-14
2.06637e-14
1.56046e-14
1.89983e-13
8.35097e-14
8.43644e-14
3.57857e-13
2.13e-14
4.50637e-13
2.31966e-14
1.01182e-14
3.3062e-13
4.83744e-13
1.89983e-13
2.5888e-12
1.34983e-12
4.12861e-12
3.40801e-13
4.97629e-12
2.8975e-11
4.40095e-11
1.85573e-13
1.01182e-14
8.2655e-14
1.09233e-13
1.89983e-13
5.84568e-13
3.37458e-13
1.11201e-12
8.52002e-14
1.49959e-12
4.63932e-14
1.01182e-14
2.06637e-14
1.56046e-14
1.89983e-13
8.35097e-14
8.43644e-14
3.57857e-13
2.13e-14
4.50637e-13
2.31966e-14
1.01182e-14
3.3062e-13
4.83744e-13
1.89983e-13
2.5888e-12
1.34983e-12
4.12861e-12
3.40801e-13
4.97629e-12
2.8975e-11
4.53901e-11
1.85573e-13
1.01182e-14
8.2655e-14
1.09233e-13
1.89983e-13
5.84568e-13
3.37458e-13
1.11201e-12
8.52002e-14
1.49959e-12
4.63932e-14
1.01182e-14
2.06637e-14
1.56046e-14
1.89983e-13
8.35097e-14
8.43644e-14
3.57857e-13
2.13e-14
4.50637e-13
2.31966e-14
1.01182e-14
3.3062e-13
4.83744e-13
1.89983e-13
2.5888e-12
1.34983e-12
4.12861e-12
3.40801e-13
4.97629e-12
2.8975e-11
4.60458e-11
1.85573e-13
1.01182e-14
8.2655e-14
1.09233e-13
1.89983e-13
5.84568e-13
3.37458e-13
1.11201e-12
8.52002e-14
1.49959e-12
4.63932e-14
1.01182e-14
2.06637e-14
1.56046e-14
1.89983e-13
8.35097e-14
8.43644e-14
3.57857e-13
2.13e-14
4.50637e-13
2.31966e-14
1.01182e-14
3.3062e-13
4.83744e-13
1.89983e-13
2.5888e-12
1.34983e-12
4.12861e-12
3.40801e-13
4.97629e-12
2.8975e-11
4.605e-11
1.85573e-13
1.01182e-14
8.2655e-14
1.09233e-13
1.89983e-13
5.84568e-13
3.37458e-13
1.11201e-12
8.52002e-14
1.49959e-12
4.63932e-14
1.01182e-14
2.06637e-14
1.56046e-14
1.89983e-13
8.35097e-14
8.43644e-14
3.57857e-13
2.13e-14
4.50637e-13
2.31966e-14
1.01182e-14
3.3062e-13
4.83744e-13
1.89983e-13
2.5888e-12
1.34983e-12
4.12861e-12
3.40801e-13
4.97629e-12
2.8975e-11
4.53326e-11
1.85573e-13
1.01182e-14
8.2655e-14
1.09233e-13
1.89983e-13
5.84568e-13
3.37458e-13
1.11201e-12
8.52002e-14
1.49959e-12
4.63932e-14
1.01182e-14
2.06637e-14
1.56046e-14
1.89983e-13
8.35097e-14
8.43644e-14
3.57857e-13
2.13e-14
4.50637e-13
2.31966e-14
1.01182e-14
3.3062e-13
4.83744e-13
1.89983e-13
2.5888e-12
1.34983e-12
4.12861e-12
3.40801e-13
4.97629e-12
2.8975e-11
4.39701e-11
1.85573e-13
1.01182e-14
8.2655e-14
1.09233e-13
1.89983e-13
5.84568e-13
3.37458e-13
1.11201e-12
8.52002e-14
1.49959e-12
4.63932e-14
1.01182e-14
2.06637e-14
1.56046e-14
1.89983e-13
8.35097e-14
8.43644e-14
3.57857e-13
2.13e-14
4.50637e-13
2.31966e-14
1.01182e-14
3.3062e-13
4.83744e-13
1.89983e-13
2.5888e-12
1.34983e-12
4.12861e-12
3.40801e-13
4.97629e-12
2.8975e-11
4.18128e-11
1.85573e-13
1.01182e-14
8.2655e-14
1.09233e-13
1.89983e-13
5.84568e-13
3.37458e-13
1.11201e-12
8.52002e-14
1.49959e-12
4.63932e-14
1.01182e-14
2.06637e-14
1.56046e-14
1.89983e-13
8.35097e-14
8.43644e-14
3.57857e-13
2.13e-14
4.50637e-13
2.31966e-14
1.01182e-14
3.3062e-13
4.83744e-13
1.89983e-13
2.5888e-12
1.34983e-12
4.12861e-12
3.40801e-13
4.97629e-12
3.01535e-11
4.27484e-11
1.85573e-13
1.01182e-14
8.2655e-14
1.09233e-13
1.89983e-13
5.84568e-13
3.37458e-13
1.11201e-12
8.52002e-14
1.49959e-12
4.63932e-14
1.01182e-14
2.06637e-14
1.56046e-14
1.89983e-13
8.35097e-14
8.43644e-14
3.57857e-13
2.13e-14
4.50637e-13
2.31966e-14
1.01182e-14
3.3062e-13
4.83744e-13
1.89983e-13
2.5888e-12
1.34983e-12
4.12861e-12
3.40801e-13
4.97629e-12
3.01535e-11
4.40722e-11
1.85573e-13
1.01182e-14
8.2655e-14
1.09233e-13
1.89983e-13
5.84568e-13
3.37458e-13
1.11201e-12
8.52002e-14
1.49959e-12
4.63932e-14
1.01182e-14
2.06637e-14
1.56046e-14
1.89983e-13
8.35097e-14
8.43644e-14
3.57857e-13
2.13e-14
4.50637e-13
2.31966e-14
1.01182e-14
3.3062e-13
4.83744e-13
1.89983e-13
2.5888e-12
1.34983e-12
4.12861e-12
3.40801e-13
4.97629e-12
3.01535e-11
4.56246e-11
1.85573e-13
1.01182e-14
8.2655e-14
1.09233e-13
1.89983e-13
5.84568e-13
3.37458e-13
1.11201e-12
8.52002e-14
1.49959e-12
4.63932e-14
1.01182e-14
2.06637e-14
1.56046e-14
1.89983e-13
8.35097e-14
8.43644e-14
3.57857e-13
2.13e-14
4.50637e-13
2.31966e-14
1.01182e-14
3.3062e-13
4.83744e-13
1.89983e-13
2.5888e-12
1.34983e-12
4.12861e-12
3.40801e-13
4.97629e-12
3.01535e-11
4.69112e-11
1.85573e-13
1.01182e-14
8.2655e-14
1.09233e-13
1.89983e-13
5.84568e-13
3.37458e-13
1.11201e-12
8.52002e-14
1.49959e-12
4.63932e-14
1.01182e-14
2.06637e-14
1.56046e-14
1.89983e-13
8.35097e-14
8.43644e-14
3.57857e-13
2.13e-14
4.50637e-13
2.31966e-14
1.01182e-14
3.3062e-13
4.83744e-13
1.89983e-13
2.5888e-12
1.34983e-12
4.12861e-12
3.40801e-13
4.97629e-12
3.01535e-11
4.69881e-11
1.85573e-13
1.01182e-14
8.2655e-14
1.09233e-13
1.89983e-13
5.84568e-13
3.37458e-13
1.11201e-12
8.52002e-14
1.49959e-12
4.63932e-14
1.01182e-14
2.06637e-14
1.56046e-14
1.89983e-13
8.35097e-14
8.43644e-14
3.57857e-13
2.13e-14
4.50637e-13
2.31966e-14
1.01182e-14
3.3062e-13
4.83744e-13
1.89983e-13
2.5888e-12
1.34983e-12
4.12861e-12
3.40801e-13
4.97629e-12
3.01535e-11
4.58405e-11
1.85573e-13
1.01182e-14
8.2655e-14
1.09233e-13
1.89983e-13
5.84568e-13
3.37458e-13
1.11201e-12
8.52002e-14
1.49959e-12
4.63932e-14
1.01182e-14
2.06637e-14
1.56046e-14
1.89983e-13
8.35097e-14
8.43644e-14
3.57857e-13
2.13e-14
4.50637e-13
2.31966e-14
1.01182e-14
3.3062e-13
4.83744e-13
1.89983e-13
2.5888e-12
1.34983e-12
4.12861e-12
3.40801e-13
4.97629e-12
3.01535e-11
4.38201e-11
1.85573e-13
1.01182e-14
8.2655e-14
1.09233e-13
1.89983e-13
5.84568e-13
3.37458e-13
1.11201e-12
8.52002e-14
1.49959e-12
4.63932e-14
1.01182e-14
2.06637e-14
1.56046e-14
1.89983e-13
8.35097e-14
8.43644e-14
3.57857e-13
2.13e-14
4.50637e-13
2.31966e-14
1.01182e-14
3.3062e-13
4.83744e-13
1.89983e-13
2.5888e-12
1.34983e-12
4.12861e-12
3.40801e-13
4.97629e-12
3.01535e-11
4.24522e-11
1.85573e-13
1.01182e-14
8.2655e-14
1.09233e-13
1.89983e-13
5.84568e-13
3.37458e-13
1.11201e-12
8.52002e-14
1.49959e-12
4.63932e-14
1.01182e-14
2.06637e-14
1.56046e-14
1.89983e-13
8.35097e-14
8.43644e-14
3.57857e-13
2.13e-14
4.50637e-13
2.31966e-14
1.01182e-14
3.3062e-13
4.83744e-13
1.89983e-13
2.5888e-12
1.34983e-12
4.12861e-12
3.40801e-13
4.97629e-12
3.01535e-11
4.45486e-11
1.85573e-13
1.01182e-14
8.2655e-14
1.09233e-13
1.89983e-13
5.84568e-13
3.37458e-13
1.11201e-12
8.52002e-14
1.49959e-12
4.63932e-14
1.01182e-14
2.06637e-14
1.56046e-14
1.89983e-13
8.35097e-14
8.43644e-14
3.57857e-13
2.13e-14
4.50637e-13
2.31966e-14
1.01182e-14
3.3062e-13
4.83744e-13
1.89983e-13
2.5888e-12
1.34983e-12
4.12861e-12
3.40801e-13
4.97629e-12
3.01535e-11
4.57945e-11
1.85573e-13
1.01182e-14
8.2655e-14
1.09233e-13
1.89983e-13
5.84568e-13
3.37458e-13
1.11201e-12
8.52002e-14
1.49959e-12
4.63932e-14
1.01182e-14
2.06637e-14
1.56046e-14
1.89983e-13
8.35097e-14
8.43644e-14
3.57857e-13
2.13e-14
4.50637e-13
2.31966e-14
1.01182e-14
3.3062e-13
4.83744e-13
1.89983e-13
2.5888e-12
1.34983e-12
4.12861e-12
3.40801e-13
4.97629e-12
3.01535e-11
4.73822e-11
1.85573e-13
1.01182e-14
8.2655e-14
1.09233e-13
1.89983e-13
5.84568e-13
3.37458e-13
1.11201e-12
8.52002e-14
1.49959e-12
4.63932e-14
1.01182e-14
2.06637e-14
1.56046e-14
1.89983e-13
8.35097e-14
8.43644e-14
3.57857e-13
2.13e-14
4.50637e-13
2.31966e-14
1.01182e-14
3.3062e-13
4.83744e-13
1.89983e-13
2.5888e-12
1.34983e-12
4.12861e-12
3.40801e-13
4.97629e-12
3.01535e-11
4.85738e-11
1.85573e-13
1.01182e-14
8.2655e-14
1.09233e-13
1.89983e-13
5.84568e-13
3.37458e-13
1.11201e-12
8.52002e-14
1.49959e-12
4.63932e-14
1.01182e-14
2.06637e-14
1.56046e-14
1.89983e-13
8.35097e-14
8.43644e-14
3.57857e-13
2.13e-14
4.50637e-13
2.31966e-14
1.01182e-14
3.3062e-13
4.83744e-13
1.89983e-13
2.5888e-12
1.34983e-12
4.12861e-12
3.40801e-13
4.97629e-12
3.01535e-11
4.8586e-11
1.85573e-13
1.01182e-14
8.2655e-14
1.09233e-13
1.89983e-13
5.84568e-13
3.37458e-13
1.11201e-12
8.52002e-14
1.49959e-12
4.63932e-14
1.01182e-14
2.06637e-14
1.56046e-14
1.89983e-13
8.35097e-14
8.43644e-14
3.57857e-13
2.13e-14
4.50637e-13
2.31966e-14
1.01182e-14
3.3062e-13
4.83744e-13
1.89983e-13
2.5888e-12
1.34983e-12
4.12861e-12
3.40801e-13
4.97629e-12
3.01535e-11
4.72823e-11
1.85573e-13
1.01182e-14
8.2655e-14
1.09233e-13
1.89983e-13
5.84568e-13
3.37458e-13
1.11201e-12
8.52002e-14
1.49959e-12
4.63932e-14
1.01182e-14
2.06637e-14
1.56046e-14
1.89983e-13
8.35097e-14
8.43644e-14
3.57857e-13
2.13e-14
4.50637e-13
2.31966e-14
1.01182e-14
3.3062e-13
4.83744e-13
1.89983e-13
2.5888e-12
1.34983e-12
4.12861e-12
3.40801e-13
4.97629e-12
3.01535e-11
4.54053e-11
1.85573e-13
1.01182e-14
8.2655e-14
1.09233e-13
1.89983e-13
5.84568e-13
3.37458e-13
1.11201e-12
8.52002e-14
1.49959e-12
4.63932e-14
1.01182e-14
2.06637e-14
1.56046e-14
1.89983e-13
8.35097e-14
8.43644e-14
3.57857e-13
2.13e-14
4.50637e-13
2.31966e-14
1.01182e-14
3.3062e-13
4.83744e-13
1.89983e-13
2.5888e-12
1.34983e-12
4.12861e-12
3.40801e-13
4.97629e-12
3.01535e-11
4.41163e-11
1.85573e-13
1.01182e-14
8.2655e-14
1.09233e-13
1.89983e-13
5.84568e-13
3.37458e-13
1.11201e-12
8.52002e-14
1.49959e-12
4.63932e-14
1.01182e-14
2.06637e-14
1.56046e-14
1.89983e-13
8.35097e-14
8.43644e-14
3.57857e-13
2.13e-14
4.50637e-13
2.31966e-14
1.01182e-14
3.3062e-13
4.83744e-13
1.89983e-13
2.5888e-12
1.34983e-12
4.12861e-12
3.40801e-13
4.97629e-12
3.01535e-11
4.5655e-11
1.85573e-13
1.01182e-14
8.2655e-14
1.09233e-13
1.89983e-13
5.84568e-13
3.37458e-13
1.11201e-12
8.52002e-14
1.49959e-12
4.63932e-14
1.01182e-14
2.06637e-14
1.56046e-14
1.89983e-13
8.35097e-14
8.43644e-14
3.57857e-13
2.13e-14
4.50637e-13
2.31966e-14
1.01182e-14
3.3062e-13
4.83744e-13
1.89983e-13
2.5888e-12
1.34983e-12
4.12861e-12
3.40801e-13
4.97629e-12
3.01535e-11
4.68417e-11
1.85573e-13
1.01182e-14
8.2655e-14
1.09233e-13
1.89983e-13
5.84568e-13
3.37458e-13
1.11201e-12
8.52002e-14
1.49959e-12
4.63932e-14
1.01182e-14
2.06637e-14
1.56046e-14
1.89983e-13
8.35097e-14
8.43644e-14
3.57857e-13
2.13e-14
4.50637e-13
2.31966e-14
1.01182e-14
3.3062e-13
4.83744e-13
1.89983e-13
2.5888e-12
1.34983e-12
4.12861e-12
3.40801e-13
4.97629e-12
3.01535e-11
4.83794e-11
1.85573e-13
1.01182e-14
8.2655e-14
1.09233e-13
1.89983e-13
5.84568e-13
3.37458e-13
1.11201e-12
8.52002e-14
1.49959e-12
4.63932e-14
1.01182e-14
2.06637e-14
1.56046e-14
1.89983e-13
8.35097e-14
8.43644e-14
3.57857e-13
2.13e-14
4.50637e-13
2.31966e-14
1.01182e-14
3.3062e-13
4.83744e-13
1.89983e-13
2.5888e-12
1.34983e-12
4.12861e-12
3.40801e-13
4.97629e-12
3.01535e-11
4.95441e-11
1.85573e-13
1.01182e-14
8.2655e-14
1.09233e-13
1.89983e-13
5.84568e-13
3.37458e-13
1.11201e-12
8.52002e-14
1.49959e-12
4.63932e-14
1.01182e-14
2.06637e-14
1.56046e-14
1.89983e-13
8.35097e-14
8.43644e-14
3.57857e-13
2.13e-14
4.50637e-13
2.31966e-14
1.01182e-14
3.3062e-13
4.83744e-13
1.89983e-13
2.5888e-12
1.34983e-12
4.12861e-12
3.40801e-13
4.97629e-12
3.01535e-11
4.96195e-11
1.85573e-13
1.01182e-14
8.2655e-14
1.09233e-13
1.89983e-13
5.84568e-13
3.37458e-13
1.11201e-12
8.52002e-14
1.49959e-12
4.63932e-14
1.01182e-14
2.06637e-14
1.56046e-14
1.89983e-13
8.35097e-14
8.43644e-14
3.57857e-13
2.13e-14
4.50637e-13
2.31966e-14
1.01182e-14
3.3062e-13
4.83744e-13
1.89983e-13
2.5888e-12
1.34983e-12
4.12861e-12
3.40801e-13
4.97629e-12
3.01535e-11
4.83741e-11
1.85573e-13
1.01182e-14
8.2655e-14
1.09233e-13
1.89983e-13
5.84568e-13
3.37458e-13
1.11201e-12
8.52002e-14
1.49959e-12
4.63932e-14
1.01182e-14
2.06637e-14
1.56046e-14
1.89983e-13
8.35097e-14
8.43644e-14
3.57857e-13
2.13e-14
4.50637e-13
2.31966e-14
1.01182e-14
3.3062e-13
4.83744e-13
1.89983e-13
2.5888e-12
1.34983e-12
4.12861e-12
3.40801e-13
4.97629e-12
3.01535e-11
4.6525e-11
1.85573e-13
1.01182e-14
8.2655e-14
1.09233e-13
1.89983e-13
5.84568e-13
3.37458e-13
1.11201e-12
8.52002e-14
1.49959e-12
4.63932e-14
1.01182e-14
2.06637e-14
1.56046e-14
1.89983e-13
8.35097e-14
8.43644e-14
3.57857e-13
2.13e-14
4.50637e-13
2.31966e-14
1.01182e-14
3.3062e-13
4.83744e-13
1.89983e-13
2.5888e-12
1.34983e-12
4.12861e-12
3.40801e-13
4.97629e-12
3.01535e-11
4.52883e-11
1.85573e-13
1.01182e-14
8.2655e-14
1.09233e-13
1.89983e-13
5.84568e-13
3.37458e-13
1.11201e-12
8.52002e-14
1.49959e-12
4.63932e-14
1.01182e-14
2.06637e-14
1.56046e-14
1.89983e-13
8.35097e-14
8.43644e-14
3.57857e-13
2.13e-14
4.50637e-13
2.31966e-14
1.01182e-14
3.3062e-13
4.83744e-13
1.89983e-13
2.5888e-12
1.34983e-12
4.12861e-12
3.40801e-13
4.97629e-12
3.01535e-11
4.62273e-11
1.85573e-13
1.01182e-14
8.2655e-14
1.09233e-13
1.89983e-13
5.84568e-13
3.37458e-13
1.11201e-12
8.52002e-14
1.49959e-12
4.63932e-14
1.01182e-14
2.06637e-14
1.56046e-14
1.89983e-13
8.35097e-14
8.43644e-14
3.57857e-13
2.13e-14
4.50637e-13
2.31966e-14
1.01182e-14
3.3062e-13
4.83744e-13
1.89983e-13
2.5888e-12
1.34983e-12
4.12861e-12
3.40801e-13
4.97629e-12
3.01535e-11
4.73988e-11
1.85573e-13
1.01182e-14
8.2655e-14
1.09233e-13
1.89983e-13
5.84568e-13
3.37458e-13
1.11201e-12
8.52002e-14
1.49959e-12
4.63932e-14
1.01182e-14
2.06637e-14
1.56046e-14
1.89983e-13
8.35097e-14
8.43644e-14
3.57857e-13
2.13e-14
4.50637e-13
2.31966e-14
1.01182e-14
3.3062e-13
4.83744e-13
1.89983e-13
2.5888e-12
1.34983e-12
4.12861e-12
3.40801e-13
4.97629e-12
3.01535e-11
4.90125e-11
1.85573e-13
1.01182e-14
8.2655e-14
1.09233e-13
1.89983e-13
5.84568e-13
3.37458e-13
1.11201e-12
8.52002e-14
1.49959e-12
4.63932e-14
1.01182e-14
2.06637e-14
1.56046e-14
1.89983e-13
8.35097e-14
8.43644e-14
3.57857e-13
2.13e-14
4.50637e-13
2.31966e-14
1.01182e-14
3.3062e-13
4.83744e-13
1.89983e-13
2.5888e-12
1.34983e-12
4.12861e-12
3.40801e-13
4.97629e-12
3.01535e-11
5.02697e-11
1.85573e-13
1.01182e-14
8.2655e-14
1.09233e-13
1.89983e-13
5.84568e-13
3.37458e-13
1.11201e-12
8.52002e-14
1.49959e-12
4.63932e-14
1.01182e-14
2.06637e-14
1.56046e-14
1.89983e-13
8.35097e-14
8.43644e-14
3.57857e-13
2.13e-14
4.50637e-13
2.31966e-14
1.01182e-14
3.3062e-13
4.83744e-13
1.89983e-13
2.5888e-12
1.34983e-12
4.12861e-12
3.40801e-13
4.97629e-12
3.01535e-11
5.03495e-11
1.85573e-13
1.01182e-14
8.2655e-14
1.09233e-13
1.89983e-13
5.84568e-13
3.37458e-13
1.11201e-12
8.52002e-14
1.49959e-12
4.63932e-14
1.01182e-14
2.06637e-14
1.56046e-14
1.89983e-13
8.35097e-14
8.43644e-14
3.57857e-13
2.13e-14
4.50637e-13
2.31966e-14
1.01182e-14
3.3062e-13
4.83744e-13
1.89983e-13
2.5888e-12
1.34983e-12
4.12861e-12
3.40801e-13
4.97629e-12
3.01535e-11
4.90404e-11
1.85573e-13
1.01182e-14
8.2655e-14
1.09233e-13
1.89983e-13
5.84568e-13
3.37458e-13
1.11201e-12
8.52002e-14
1.49959e-12
4.63932e-14
1.01182e-14
2.06637e-14
1.56046e-14
1.89983e-13
8.35097e-14
8.43644e-14
3.57857e-13
2.13e-14
4.50637e-13
2.31966e-14
1.01182e-14
3.3062e-13
4.83744e-13
1.89983e-13
2.5888e-12
1.34983e-12
4.12861e-12
3.40801e-13
4.97629e-12
3.01535e-11
4.71844e-11
1.85573e-13
1.01182e-14
8.2655e-14
1.09233e-13
1.89983e-13
5.84568e-13
3.37458e-13
1.11201e-12
8.52002e-14
1.49959e-12
4.63932e-14
1.01182e-14
2.06637e-14
1.56046e-14
1.89983e-13
8.35097e-14
8.43644e-14
3.57857e-13
2.13e-14
4.50637e-13
2.31966e-14
1.01182e-14
3.3062e-13
4.83744e-13
1.89983e-13
2.5888e-12
1.34983e-12
4.12861e-12
3.40801e-13
4.97629e-12
3.01535e-11
4.57617e-11
1.85573e-13
1.01182e-14
8.2655e-14
1.09233e-13
1.89983e-13
5.84568e-13
3.37458e-13
1.11201e-12
8.52002e-14
1.49959e-12
4.63932e-14
1.01182e-14
2.06637e-14
1.56046e-14
1.89983e-13
8.35097e-14
8.43644e-14
3.57857e-13
2.13e-14
4.50637e-13
2.31966e-14
1.01182e-14
3.3062e-13
4.83744e-13
1.89983e-13
2.5888e-12
1.34983e-12
4.12861e-12
3.40801e-13
4.97629e-12
3.01535e-11
4.62111e-11
1.85573e-13
1.01182e-14
8.2655e-14
1.09233e-13
1.89983e-13
5.84568e-13
3.37458e-13
1.11201e-12
8.52002e-14
1.49959e-12
4.63932e-14
1.01182e-14
2.06637e-14
1.56046e-14
1.89983e-13
8.35097e-14
8.43644e-14
3.57857e-13
2.13e-14
4.50637e-13
2.31966e-14
1.01182e-14
3.3062e-13
4.83744e-13
1.89983e-13
2.5888e-12
1.34983e-12
4.12861e-12
3.40801e-13
4.97629e-12
3.01535e-11
4.75501e-11
1.85573e-13
1.01182e-14
8.2655e-14
1.09233e-13
1.89983e-13
5.84568e-13
3.37458e-13
1.11201e-12
8.52002e-14
1.49959e-12
4.63932e-14
1.01182e-14
2.06637e-14
1.56046e-14
1.89983e-13
8.35097e-14
8.43644e-14
3.57857e-13
2.13e-14
4.50637e-13
2.31966e-14
1.01182e-14
3.3062e-13
4.83744e-13
1.89983e-13
2.5888e-12
1.34983e-12
4.12861e-12
3.40801e-13
4.97629e-12
3.01535e-11
4.91647e-11
1.85573e-13
1.01182e-14
8.2655e-14
1.09233e-13
1.89983e-13
5.84568e-13
3.37458e-13
1.11201e-12
8.52002e-14
1.49959e-12
4.63932e-14
1.01182e-14
2.06637e-14
1.56046e-14
1.89983e-13
8.35097e-14
8.43644e-14
3.57857e-13
2.13e-14
4.50637e-13
2.31966e-14
1.01182e-14
3.3062e-13
4.83744e-13
1.89983e-13
2.5888e-12
1.34983e-12
4.12861e-12
3.40801e-13
4.97629e-12
3.01535e-11
5.02432e-11
1.85573e-13
1.01182e-14
8.2655e-14
1.09233e-13
1.89983e-13
5.84568e-13
3.37458e-13
1.11201e-12
8.52002e-14
1.49959e-12
4.63932e-14
1.01182e-14
2.06637e-14
1.56046e-14
1.89983e-13
8.35097e-14
8.43644e-14
3.57857e-13
2.13e-14
4.50637e-13
2.31966e-14
1.01182e-14
3.3062e-13
4.83744e-13
1.89983e-13
2.5888e-12
1.34983e-12
4.12861e-12
3.40801e-13
4.97629e-12
3.01535e-11
5.02447e-11
1.85573e-13
1.01182e-14
8.2655e-14
1.09233e-13
1.89983e-13
5.84568e-13
3.37458e-13
1.11201e-12
8.52002e-14
1.49959e-12
4.63932e-14
1.01182e-14
2.06637e-14
1.56046e-14
1.89983e-13
8.35097e-14
8.43644e-14
3.57857e-13
2.13e-14
4.50637e-13
2.31966e-14
1.01182e-14
3.3062e-13
4.83744e-13
1.89983e-13
2.5888e-12
1.34983e-12
4.12861e-12
3.40801e-13
4.97629e-12
3.01535e-11
4.90438e-11
1.85573e-13
1.01182e-14
8.2655e-14
1.09233e-13
1.89983e-13
5.84568e-13
3.37458e-13
1.11201e-12
8.52002e-14
1.49959e-12
4.63932e-14
1.01182e-14
2.06637e-14
1.56046e-14
1.89983e-13
8.35097e-14
8.43644e-14
3.57857e-13
2.13e-14
4.50637e-13
2.31966e-14
1.01182e-14
3.3062e-13
4.83744e-13
1.89983e-13
2.5888e-12
1.34983e-12
4.12861e-12
3.40801e-13
4.97629e-12
3.01535e-11
4.71501e-11
1.85573e-13
1.01182e-14
8.2655e-14
1.09233e-13
1.89983e-13
5.84568e-13
3.37458e-13
1.11201e-12
8.52002e-14
1.49959e-12
4.63932e-14
1.01182e-14
2.06637e-14
1.56046e-14
1.89983e-13
8.35097e-14
8.43644e-14
3.57857e-13
2.13e-14
4.50637e-13
2.31966e-14
1.01182e-14
3.3062e-13
4.83744e-13
1.89983e-13
2.5888e-12
1.34983e-12
4.12861e-12
3.40801e-13
4.97629e-12
3.01535e-11
4.58068e-11
1.85573e-13
1.01182e-14
8.2655e-14
1.09233e-13
1.89983e-13
5.84568e-13
3.37458e-13
1.11201e-12
8.52002e-14
1.49959e-12
4.63932e-14
1.01182e-14
2.06637e-14
1.56046e-14
1.89983e-13
8.35097e-14
8.43644e-14
3.57857e-13
2.13e-14
4.50637e-13
2.31966e-14
1.01182e-14
3.3062e-13
4.83744e-13
1.89983e-13
2.5888e-12
1.34983e-12
4.12861e-12
3.40801e-13
4.97629e-12
3.01535e-11
4.56922e-11
1.85573e-13
1.01182e-14
8.2655e-14
1.09233e-13
1.89983e-13
5.84568e-13
3.37458e-13
1.11201e-12
8.52002e-14
1.49959e-12
4.63932e-14
1.01182e-14
2.06637e-14
1.56046e-14
1.89983e-13
8.35097e-14
8.43644e-14
3.57857e-13
2.13e-14
4.50637e-13
2.31966e-14
1.01182e-14
3.3062e-13
4.83744e-13
1.89983e-13
2.5888e-12
1.34983e-12
4.12861e-12
3.40801e-13
4.97629e-12
3.01535e-11
4.68867e-11
1.85573e-13
1.01182e-14
8.2655e-14
1.09233e-13
1.89983e-13
5.84568e-13
3.37458e-13
1.11201e-12
8.52002e-14
1.49959e-12
4.63932e-14
1.01182e-14
2.06637e-14
1.56046e-14
1.89983e-13
8.35097e-14
8.43644e-14
3.57857e-13
2.13e-14
4.50637e-13
2.31966e-14
1.01182e-14
3.3062e-13
4.83744e-13
1.89983e-13
2.5888e-12
1.34983e-12
4.12861e-12
3.40801e-13
4.97629e-12
3.01535e-11
4.84015e-11
1.85573e-13
1.01182e-14
8.2655e-14
1.09233e-13
1.89983e-13
5.84568e-13
3.37458e-13
1.11201e-12
8.52002e-14
1.49959e-12
4.63932e-14
1.01182e-14
2.06637e-14
1.56046e-14
1.89983e-13
8.35097e-14
8.43644e-14
3.57857e-13
2.13e-14
4.50637e-13
2.31966e-14
1.01182e-14
3.3062e-13
4.83744e-13
1.89983e-13
2.5888e-12
1.34983e-12
4.12861e-12
3.40801e-13
4.97629e-12
3.01535e-11
4.95368e-11
1.85573e-13
1.01182e-14
8.2655e-14
1.09233e-13
1.89983e-13
5.84568e-13
3.37458e-13
1.11201e-12
8.52002e-14
1.49959e-12
4.63932e-14
1.01182e-14
2.06637e-14
1.56046e-14
1.89983e-13
8.35097e-14
8.43644e-14
3.57857e-13
2.13e-14
4.50637e-13
2.31966e-14
1.01182e-14
3.3062e-13
4.83744e-13
1.89983e-13
2.5888e-12
1.34983e-12
4.12861e-12
3.40801e-13
4.97629e-12
3.01535e-11
4.96871e-11
1.85573e-13
1.01182e-14
8.2655e-14
1.09233e-13
1.89983e-13
5.84568e-13
3.37458e-13
1.11201e-12
8.52002e-14
1.49959e-12
4.63932e-14
1.01182e-14
2.06637e-14
1.56046e-14
1.89983e-13
8.35097e-14
8.43644e-14
3.57857e-13
2.13e-14
4.50637e-13
2.31966e-14
1.01182e-14
3.3062e-13
4.83744e-13
1.89983e-13
2.5888e-12
1.34983e-12
4.12861e-12
3.40801e-13
4.97629e-12
3.01535e-11
4.85488e-11
1.85573e-13
1.01182e-14
8.2655e-14
1.09233e-13
1.89983e-13
5.84568e-13
3.37458e-13
1.11201e-12
8.52002e-14
1.49959e-12
4.63932e-14
1.01182e-14
2.06637e-14
1.56046e-14
1.89983e-13
8.35097e-14
8.43644e-14
3.57857e-13
2.13e-14
4.50637e-13
2.31966e-14
1.01182e-14
3.3062e-13
4.83744e-13
1.89983e-13
2.5888e-12
1.34983e-12
4.12861e-12
3.40801e-13
4.97629e-12
3.01535e-11
4.66689e-11
1.85573e-13
1.01182e-14
8.2655e-14
1.09233e-13
1.89983e-13
5.84568e-13
3.37458e-13
1.11201e-12
8.52002e-14
1.49959e-12
4.63932e-14
1.01182e-14
2.06637e-14
1.56046e-14
1.89983e-13
8.35097e-14
8.43644e-14
3.57857e-13
2.13e-14
4.50637e-13
2.31966e-14
1.01182e-14
3.3062e-13
4.83744e-13
1.89983e-13
2.5888e-12
1.34983e-12
4.12861e-12
3.40801e-13
4.97629e-12
3.01535e-11
4.52526e-11
1.85573e-13
1.01182e-14
8.2655e-14
1.09233e-13
1.89983e-13
5.84568e-13
3.37458e-13
1.11201e-12
8.52002e-14
1.49959e-12
4.63932e-14
1.01182e-14
2.06637e-14
1.56046e-14
1.89983e-13
8.35097e-14
8.43644e-14
3.57857e-13
2.13e-14
4.50637e-13
2.31966e-14
1.01182e-14
3.3062e-13
4.83744e-13
1.89983e-13
2.5888e-12
1.34983e-12
4.12861e-12
3.40801e-13
4.97629e-12
3.01535e-11
4.46479e-11
1.85573e-13
1.01182e-14
8.2655e-14
1.09233e-13
1.89983e-13
5.84568e-13
3.37458e-13
1.11201e-12
8.52002e-14
1.49959e-12
4.63932e-14
1.01182e-14
2.06637e-14
1.56046e-14
1.89983e-13
8.35097e-14
8.43644e-14
3.57857e-13
2.13e-14
4.50637e-13
2.31966e-14
1.01182e-14
3.3062e-13
4.83744e-13
1.89983e-13
2.5888e-12
1.34983e-12
4.12861e-12
3.40801e-13
4.97629e-12
3.01535e-11
4.59022e-11
1.85573e-13
1.01182e-14
8.2655e-14
1.09233e-13
1.89983e-13
5.84568e-13
3.37458e-13
1.11201e-12
8.52002e-14
1.49959e-12
4.63932e-14
1.01182e-14
2.06637e-14
1.56046e-14
1.89983e-13
8.35097e-14
8.43644e-14
3.57857e-13
2.13e-14
4.50637e-13
2.31966e-14
1.01182e-14
3.3062e-13
4.83744e-13
1.89983e-13
2.5888e-12
1.34983e-12
4.12861e-12
3.40801e-13
4.97629e-12
3.01535e-11
4.74507e-11
1.85573e-13
1.01182e-14
8.2655e-14
1.09233e-13
1.89983e-13
5.84568e-13
3.37458e-13
1.11201e-12
8.52002e-14
1.49959e-12
4.63932e-14
1.01182e-14
2.06637e-14
1.56046e-14
1.89983e-13
8.35097e-14
8.43644e-14
3.57857e-13
2.13e-14
4.50637e-13
2.31966e-14
1.01182e-14
3.3062e-13
4.83744e-13
1.89983e-13
2.5888e-12
1.34983e-12
4.12861e-12
3.40801e-13
4.97629e-12
3.01535e-11
4.85718e-11
1.85573e-13
1.01182e-14
8.2655e-14
1.09233e-13
1.89983e-13
5.84568e-13
3.37458e-13
1.11201e-12
8.52002e-14
1.49959e-12
4.63932e-14
1.01182e-14
2.06637e-14
1.56046e-14
1.89983e-13
8.35097e-14
8.43644e-14
3.57857e-13
2.13e-14
4.50637e-13
2.31966e-14
1.01182e-14
3.3062e-13
4.83744e-13
1.89983e-13
2.5888e-12
1.34983e-12
4.12861e-12
3.40801e-13
4.97629e-12
3.01535e-11
4.86977e-11
1.85573e-13
1.01182e-14
8.2655e-14
1.09233e-13
1.89983e-13
5.84568e-13
3.37458e-13
1.11201e-12
8.52002e-14
1.49959e-12
4.63932e-14
1.01182e-14
2.06637e-14
1.56046e-14
1.89983e-13
8.35097e-14
8.43644e-14
3.57857e-13
2.13e-14
4.50637e-13
2.31966e-14
1.01182e-14
3.3062e-13
4.83744e-13
1.89983e-13
2.5888e-12
1.34983e-12
4.12861e-12
3.40801e-13
4.97629e-12
3.01535e-11
4.7436e-11
1.85573e-13
1.01182e-14
8.2655e-14
1.09233e-13
1.89983e-13
5.84568e-13
3.37458e-13
1.11201e-12
8.52002e-14
1.49959e-12
4.63932e-14
1.01182e-14
2.06637e-14
1.56046e-14
1.89983e-13
8.35097e-14
8.43644e-14
3.57857e-13
2.13e-14
4.50637e-13
2.31966e-14
1.01182e-14
3.3062e-13
4.83744e-13
1.89983e-13
2.5888e-12
1.34983e-12
4.12861e-12
3.40801e-13
4.97629e-12
3.01535e-11
4.55248e-11
1.85573e-13
1.01182e-14
8.2655e-14
1.09233e-13
1.89983e-13
5.84568e-13
3.37458e-13
1.11201e-12
8.52002e-14
1.49959e-12
4.63932e-14
1.01182e-14
2.06637e-14
1.56046e-14
1.89983e-13
8.35097e-14
8.43644e-14
3.57857e-13
2.13e-14
4.50637e-13
2.31966e-14
1.01182e-14
3.3062e-13
4.83744e-13
1.89983e-13
2.5888e-12
1.34983e-12
4.12861e-12
3.40801e-13
4.97629e-12
3.01535e-11
4.4129e-11
1.85573e-13
1.01182e-14
8.2655e-14
1.09233e-13
1.89983e-13
5.84568e-13
3.37458e-13
1.11201e-12
8.52002e-14
1.49959e-12
4.63932e-14
1.01182e-14
2.06637e-14
1.56046e-14
1.89983e-13
8.35097e-14
8.43644e-14
3.57857e-13
2.13e-14
4.50637e-13
2.31966e-14
1.01182e-14
3.3062e-13
4.83744e-13
1.89983e-13
2.5888e-12
1.34983e-12
4.12861e-12
3.40801e-13
4.97629e-12
3.01535e-11
4.2532e-11
1.85573e-13
1.01182e-14
8.2655e-14
1.09233e-13
1.89983e-13
5.84568e-13
3.37458e-13
1.11201e-12
8.52002e-14
1.49959e-12
4.63932e-14
1.01182e-14
2.06637e-14
1.56046e-14
1.89983e-13
8.35097e-14
8.43644e-14
3.57857e-13
2.13e-14
4.50637e-13
2.31966e-14
1.01182e-14
3.3062e-13
4.83744e-13
1.89983e-13
2.5888e-12
1.34983e-12
4.12861e-12
3.40801e-13
4.97629e-12
3.01535e-11
4.42289e-11
1.85573e-13
1.01182e-14
8.2655e-14
1.09233e-13
1.89983e-13
5.84568e-13
3.37458e-13
1.11201e-12
8.52002e-14
1.49959e-12
4.63932e-14
1.01182e-14
2.06637e-14
1.56046e-14
1.89983e-13
8.35097e-14
8.43644e-14
3.57857e-13
2.13e-14
4.50637e-13
2.31966e-14
1.01182e-14
3.3062e-13
4.83744e-13
1.89983e-13
2.5888e-12
1.34983e-12
4.12861e-12
3.40801e-13
4.97629e-12
3.01535e-11
4.56403e-11
1.85573e-13
1.01182e-14
8.2655e-14
1.09233e-13
1.89983e-13
5.84568e-13
3.37458e-13
1.11201e-12
8.52002e-14
1.49959e-12
4.63932e-14
1.01182e-14
2.06637e-14
1.56046e-14
1.89983e-13
8.35097e-14
8.43644e-14
3.57857e-13
2.13e-14
4.50637e-13
2.31966e-14
1.01182e-14
3.3062e-13
4.83744e-13
1.89983e-13
2.5888e-12
1.34983e-12
4.12861e-12
3.40801e-13
4.97629e-12
3.01535e-11
4.68676e-11
1.85573e-13
1.01182e-14
8.2655e-14
1.09233e-13
1.89983e-13
5.84568e-13
3.37458e-13
1.11201e-12
8.52002e-14
1.49959e-12
4.63932e-14
1.01182e-14
2.06637e-14
1.56046e-14
1.89983e-13
8.35097e-14
8.43644e-14
3.57857e-13
2.13e-14
4.50637e-13
2.31966e-14
1.01182e-14
3.3062e-13
4.83744e-13
1.89983e-13
2.5888e-12
1.34983e-12
4.12861e-12
3.40801e-13
4.97629e-12
3.01535e-11
4.7015e-11
1.85573e-13
1.01182e-14
8.2655e-14
1.09233e-13
1.89983e-13
5.84568e-13
3.37458e-13
1.11201e-12
8.52002e-14
1.49959e-12
4.63932e-14
1.01182e-14
2.06637e-14
1.56046e-14
1.89983e-13
8.35097e-14
8.43644e-14
3.57857e-13
2.13e-14
4.50637e-13
2.31966e-14
1.01182e-14
3.3062e-13
4.83744e-13
1.89983e-13
2.5888e-12
1.34983e-12
4.12861e-12
3.40801e-13
4.97629e-12
3.01535e-11
4.57818e-11
1.85573e-13
1.01182e-14
8.2655e-14
1.09233e-13
1.89983e-13
5.84568e-13
3.37458e-13
1.11201e-12
8.52002e-14
1.49959e-12
4.63932e-14
1.01182e-14
2.06637e-14
1.56046e-14
1.89983e-13
8.35097e-14
8.43644e-14
3.57857e-13
2.13e-14
4.50637e-13
2.31966e-14
1.01182e-14
3.3062e-13
4.83744e-13
1.89983e-13
2.5888e-12
1.34983e-12
4.12861e-12
3.40801e-13
4.97629e-12
3.01535e-11
4.39126e-11
1.85573e-13
1.01182e-14
8.2655e-14
1.09233e-13
1.89983e-13
5.84568e-13
3.37458e-13
1.11201e-12
8.52002e-14
1.49959e-12
4.63932e-14
1.01182e-14
2.06637e-14
1.56046e-14
1.89983e-13
8.35097e-14
8.43644e-14
3.57857e-13
2.13e-14
4.50637e-13
2.31966e-14
1.01182e-14
3.3062e-13
4.83744e-13
1.89983e-13
2.5888e-12
1.34983e-12
4.12861e-12
3.40801e-13
4.97629e-12
3.01535e-11
4.24052e-11
