BEGIN Configuration File: /Users/yash/Projects/wsc-noc-dvfs/final_paper_sims/flatfly/flatfly_queue_pid_inj0.6_cap0.6/config.cfg

// Final Paper Simulation Config
// Topology: flatfly, Policy: queue_pid
// Injection Rate: 0.6, Power Cap: 0.6W

// VC Configuration
read_request_begin_vc  = 0;
read_request_end_vc    = 5;
write_reply_begin_vc   = 2;
write_reply_end_vc     = 7;
read_reply_begin_vc    = 8;
read_reply_end_vc      = 12;
write_request_begin_vc = 10;
write_request_end_vc   = 15;
num_vcs     = 16;
vc_buf_size = 8;
wait_for_tail_credit = 0;
vc_allocator = max_size;
sw_allocator = max_size;
alloc_iters  = 2;
credit_delay   = 2;
routing_delay  = 0;
vc_alloc_delay = 1;
sw_alloc_delay = 1;
st_final_delay = 1;
input_speedup     = 1;
output_speedup    = 1;
internal_speedup  = 1.0;

// Detailed simulation settings (longer runs for accuracy)
sim_type = latency;
warmup_periods = 3;
sim_count = 1;
sample_period  = 10000;
max_samples = 15;
use_read_write = 0;
batch_size = 10000;
latency_thres = 5000;
packet_size = 1;

// Topology

topology = flatfly;
subnets = 1;
c  = 4;
k  = 4;
n  = 2;
x  = 4;
y  = 4;
xr = 2;
yr = 2;
limit = 64;
routing_function = ran_min;


// Traffic - 2 classes with different priorities
// Using uniform traffic with configurable injection rate
// Split injection: 30% control (class 0), 70% batch (class 1)
traffic = uniform;
injection_rate = {0.18,0.42};

// 2-class traffic for SLO-aware policies
classes = 2;
class_priority = {1,0};
class_slo = {50,-1};
priority_policy = static_class;

// Orion power model
use_orion = 1;
Vdd = 1.0;
Orion_tr = 0.2;
Orion_Freq = 1e9;
Orion_inport = 5;
Orion_outport = 5;
Orion_bitwidth = 128;
Orion_vc_class = 1;
Orion_IsSharedBuffIn = 0;
Orion_IsSharedBuffOut = 0;
Orion_crossbar_model = 0;
Orion_crsbar_degree = 4;
Orion_Cxbar_Cxpoint = 0;
Orion_trans_type = 0;
Orion_IsInBuff = 1;
Orion_out_buf_size = 0;
Orion_IsOutBuff = 0;
Orion_buff_type = 0;
Orion_in_arb_model = 1;
Orion_out_arb_model = 1;
Orion_allocator_model = 1;
Orion_in_vc_arb_model = 1;
Orion_out_vc_arb_model = 1;
wire_length = 1.0;

// Power cap
power_cap = 0.6;

// DVFS base settings
dvfs_epoch = 10000;
dvfs_log_interval = 10000;
dvfs_freqs = 1.0;
dvfs_voltages = 1.0;
router_domains = 0;

// Policy-specific settings

dvfs_policy = queue_pid;
dvfs_min_scale = 0.5;
dvfs_max_scale = 1.0;
queue_pid_target = 0.02;
queue_pid_kp = 0.5;
queue_pid_ki = 0.01;
queue_pid_kd = 0.1;
queue_pid_per_router = 1;
queue_pid_headroom_margin = 0.05;
control_class_id = 0;
control_slo_cycles = 50.0;


// Output files
latency_csv = latency.csv;
stall_csv = stalls.csv;
throughput_csv = throughput.csv;
summary_csv = summary.csv;
energy_csv = energy.csv;
epoch_csv = epoch.csv;
dvfs_log = power_log;
output_dir = /Users/yash/Projects/wsc-noc-dvfs/final_paper_sims/flatfly;
run_name = flatfly_queue_pid_inj0.6_cap0.6;

END Configuration File: /Users/yash/Projects/wsc-noc-dvfs/final_paper_sims/flatfly/flatfly_queue_pid_inj0.6_cap0.6/config.cfg
 Flat Bufferfly 
 k = 4 n = 2 c = 4
 each switch - total radix =  10
 # of switches = 16
 # of channels = 96
 # of nodes ( size of network ) = 64
Class 0:
Packet latency average = 19.065
	minimum = 6
	maximum = 80
Network latency average = 19.065
	minimum = 6
	maximum = 80
Slowest packet = 119136
Flit latency average = 19.065
	minimum = 6
	maximum = 80
Slowest flit = 119136
Fragmentation average = 0
	minimum = 0
	maximum = 0
Injected packet rate average = 0.180136
	minimum = 0.1711 (at node 2)
	maximum = 0.1881 (at node 36)
Accepted packet rate average = 0.179808
	minimum = 0.168 (at node 17)
	maximum = 0.1897 (at node 27)
Injected flit rate average = 0.180136
	minimum = 0.1711 (at node 2)
	maximum = 0.1881 (at node 36)
Accepted flit rate average= 0.179808
	minimum = 0.168 (at node 17)
	maximum = 0.1897 (at node 27)
Injected packet length average = 1
Accepted packet length average = 1
Total in-flight flits = 210 (0 measured)
Buffer busy stall rate = 0
Buffer conflict stall rate = 0
Buffer full stall rate = 0
Buffer reserved stall rate = 0.0092625
Crossbar conflict stall rate = 1.48762
Class 1:
Packet latency average = 19.4415
	minimum = 6
	maximum = 77
Network latency average = 18.9877
	minimum = 6
	maximum = 75
Slowest packet = 163565
Flit latency average = 18.9877
	minimum = 6
	maximum = 75
Slowest flit = 163565
Fragmentation average = 0
	minimum = 0
	maximum = 0
Injected packet rate average = 0.419633
	minimum = 0.4089 (at node 18)
	maximum = 0.4322 (at node 45)
Accepted packet rate average = 0.418809
	minimum = 0.3994 (at node 31)
	maximum = 0.4391 (at node 28)
Injected flit rate average = 0.419633
	minimum = 0.4089 (at node 18)
	maximum = 0.4322 (at node 45)
Accepted flit rate average= 0.418809
	minimum = 0.3994 (at node 31)
	maximum = 0.4391 (at node 28)
Injected packet length average = 1
Accepted packet length average = 1
Total in-flight flits = 535 (0 measured)
Buffer busy stall rate = 0
Buffer conflict stall rate = 0
Buffer full stall rate = 0
Buffer reserved stall rate = 0.0221187
Crossbar conflict stall rate = 3.39899
latency change    = 1
throughput change = 1
latency change    = 1
throughput change = 1
DVFS epoch t=10000 total_power=0.768033 headroom=-0.168033 avg_power=0.768033 domains{0:freq=1,power=0.768033} routers{0:freq=1,power=0.0480081, 1:freq=1,power=0.0480354, 2:freq=1,power=0.0480292, 3:freq=1,power=0.0479905, 4:freq=1,power=0.0479463, 5:freq=1,power=0.0479847, 6:freq=1,power=0.0480142, 7:freq=1,power=0.0479721, 8:freq=1,power=0.0479596, 9:freq=1,power=0.0479888, 10:freq=1,power=0.0480083, 11:freq=1,power=0.0480085, 12:freq=1,power=0.0480352, 13:freq=1,power=0.04801, 14:freq=1,power=0.0480208, 15:freq=1,power=0.0480217}
QUEUE_PID_DIFF: epoch=1 max_occ=0.0171875 avg_occ=0.0117188 budget=0.579916 headroom=-0.168033
Class 0:
Packet latency average = 26.835
	minimum = 6
	maximum = 792
Network latency average = 26.835
	minimum = 6
	maximum = 792
Slowest packet = 470749
Flit latency average = 26.835
	minimum = 6
	maximum = 792
Slowest flit = 470749
Fragmentation average = 0
	minimum = 0
	maximum = 0
Injected packet rate average = 0.179615
	minimum = 0.17395 (at node 2)
	maximum = 0.18435 (at node 62)
Accepted packet rate average = 0.179301
	minimum = 0.17405 (at node 17)
	maximum = 0.1853 (at node 27)
Injected flit rate average = 0.179615
	minimum = 0.17395 (at node 2)
	maximum = 0.18435 (at node 62)
Accepted flit rate average= 0.179301
	minimum = 0.17405 (at node 17)
	maximum = 0.1853 (at node 27)
Injected packet length average = 1
Accepted packet length average = 1
Total in-flight flits = 402 (0 measured)
Buffer busy stall rate = 5e-05
Buffer conflict stall rate = 0.0018875
Buffer full stall rate = 0
Buffer reserved stall rate = 0.208194
Crossbar conflict stall rate = 2.11861
Class 1:
Packet latency average = 27.168
	minimum = 6
	maximum = 811
Network latency average = 26.7168
	minimum = 6
	maximum = 810
Slowest packet = 564438
Flit latency average = 26.7168
	minimum = 6
	maximum = 810
Slowest flit = 564438
Fragmentation average = 0
	minimum = 0
	maximum = 0
Injected packet rate average = 0.419726
	minimum = 0.4102 (at node 30)
	maximum = 0.42585 (at node 44)
Accepted packet rate average = 0.418976
	minimum = 0.40565 (at node 16)
	maximum = 0.4324 (at node 28)
Injected flit rate average = 0.419726
	minimum = 0.4102 (at node 30)
	maximum = 0.42585 (at node 44)
Accepted flit rate average= 0.418976
	minimum = 0.40565 (at node 16)
	maximum = 0.4324 (at node 28)
Injected packet length average = 1
Accepted packet length average = 1
Total in-flight flits = 965 (0 measured)
Buffer busy stall rate = 0.000121875
Buffer conflict stall rate = 0.00456563
Buffer full stall rate = 0
Buffer reserved stall rate = 0.483425
Crossbar conflict stall rate = 4.88189
latency change    = 0.289545
throughput change = 0.00282783
latency change    = 0.284399
throughput change = 0.000397174
DVFS epoch t=20000 total_power=0.69743 headroom=-0.0974295 avg_power=0.732731 domains{0:freq=0.683058,power=0.69743} routers{0:freq=0.683058,power=0.036416, 1:freq=0.9,power=0.0451629, 2:freq=0.9,power=0.045165, 3:freq=0.899695,power=0.0451553, 4:freq=0.9,power=0.0451616, 5:freq=0.9,power=0.0451575, 6:freq=0.899695,power=0.045136, 7:freq=0.689559,power=0.0367204, 8:freq=0.9,power=0.045125, 9:freq=0.9,power=0.0451249, 10:freq=0.702598,power=0.0372767, 11:freq=0.9,power=0.0451551, 12:freq=0.9,power=0.0451644, 13:freq=0.9,power=0.0451828, 14:freq=0.9,power=0.045174, 15:freq=0.9,power=0.0451521}
QUEUE_PID_DIFF: epoch=2 max_occ=0.132812 avg_occ=0.0385742 budget=0.756426 headroom=-0.0974295
Class 0:
Packet latency average = 84.624
	minimum = 6
	maximum = 899
Network latency average = 84.624
	minimum = 6
	maximum = 899
Slowest packet = 1102191
Flit latency average = 84.624
	minimum = 6
	maximum = 899
Slowest flit = 1102191
Fragmentation average = 0
	minimum = 0
	maximum = 0
Injected packet rate average = 0.179081
	minimum = 0.1718 (at node 22)
	maximum = 0.1889 (at node 0)
Accepted packet rate average = 0.178025
	minimum = 0.167 (at node 45)
	maximum = 0.1869 (at node 29)
Injected flit rate average = 0.179081
	minimum = 0.1718 (at node 22)
	maximum = 0.1889 (at node 0)
Accepted flit rate average= 0.178025
	minimum = 0.167 (at node 45)
	maximum = 0.1869 (at node 29)
Injected packet length average = 1
Accepted packet length average = 1
Total in-flight flits = 1078 (0 measured)
Buffer busy stall rate = 0.0075125
Buffer conflict stall rate = 0.195131
Buffer full stall rate = 0
Buffer reserved stall rate = 0.997387
Crossbar conflict stall rate = 7.43991
Class 1:
Packet latency average = 84.8032
	minimum = 6
	maximum = 965
Network latency average = 84.3532
	minimum = 6
	maximum = 965
Slowest packet = 1078288
Flit latency average = 84.3532
	minimum = 6
	maximum = 965
Slowest flit = 1078288
Fragmentation average = 0
	minimum = 0
	maximum = 0
Injected packet rate average = 0.419622
	minimum = 0.4061 (at node 8)
	maximum = 0.4304 (at node 23)
Accepted packet rate average = 0.417216
	minimum = 0.4008 (at node 34)
	maximum = 0.4382 (at node 0)
Injected flit rate average = 0.419622
	minimum = 0.4061 (at node 8)
	maximum = 0.4304 (at node 23)
Accepted flit rate average= 0.417216
	minimum = 0.4008 (at node 34)
	maximum = 0.4382 (at node 0)
Injected packet length average = 1
Accepted packet length average = 1
Total in-flight flits = 2513 (0 measured)
Buffer busy stall rate = 0.0145688
Buffer conflict stall rate = 0.449087
Buffer full stall rate = 0
Buffer reserved stall rate = 2.35501
Crossbar conflict stall rate = 17.3994
latency change    = 0.682892
throughput change = 0.0071663
latency change    = 0.679635
throughput change = 0.00421882
Warmed up ...Time used is 30000 cycles
DVFS epoch t=30000 total_power=0.592811 headroom=0.00718886 avg_power=0.686091 domains{0:freq=0.708893,power=0.592811} routers{0:freq=0.708893,power=0.0383793, 1:freq=0.666766,power=0.036539, 2:freq=0.66467,power=0.0364368, 3:freq=0.677709,power=0.0370064, 4:freq=0.667925,power=0.0366517, 5:freq=0.663852,power=0.0364075, 6:freq=0.661637,power=0.036347, 7:freq=0.700311,power=0.0380069, 8:freq=0.669118,power=0.0367086, 9:freq=0.656335,power=0.0361307, 10:freq=0.699573,power=0.0378757, 11:freq=0.656423,power=0.0361731, 12:freq=0.714685,power=0.0385666, 13:freq=0.685416,power=0.0372922, 14:freq=0.673291,power=0.0368183, 15:freq=0.688699,power=0.0374714}
QUEUE_PID_DIFF: epoch=3 max_occ=0.302344 avg_occ=0.137793 budget=1 headroom=0.00718886
Class 0:
Packet latency average = 212.081
	minimum = 6
	maximum = 5120
Network latency average = 188.695
	minimum = 6
	maximum = 5120
Slowest packet = 1334082
Flit latency average = 188.319
	minimum = 6
	maximum = 5120
Slowest flit = 1334082
Fragmentation average = 0
	minimum = 0
	maximum = 0
Injected packet rate average = 0.176434
	minimum = 0.1233 (at node 47)
	maximum = 0.1862 (at node 41)
Accepted packet rate average = 0.171937
	minimum = 0.1592 (at node 32)
	maximum = 0.1821 (at node 38)
Injected flit rate average = 0.176434
	minimum = 0.1233 (at node 47)
	maximum = 0.1862 (at node 41)
Accepted flit rate average= 0.171937
	minimum = 0.1592 (at node 32)
	maximum = 0.1821 (at node 38)
Injected packet length average = 1
Accepted packet length average = 1
Total in-flight flits = 3969 (3969 measured)
Buffer busy stall rate = 2.52869
Buffer conflict stall rate = 2.47126
Buffer full stall rate = 0.666419
Buffer reserved stall rate = 2.09134
Crossbar conflict stall rate = 6.88236
Class 1:
Packet latency average = 217.886
	minimum = 6
	maximum = 4866
Network latency average = 153.92
	minimum = 6
	maximum = 4866
Slowest packet = 1334461
Flit latency average = 153.897
	minimum = 6
	maximum = 4866
Slowest flit = 1334461
Fragmentation average = 0
	minimum = 0
	maximum = 0
Injected packet rate average = 0.364919
	minimum = 0.206 (at node 46)
	maximum = 0.4276 (at node 0)
Accepted packet rate average = 0.362352
	minimum = 0.3505 (at node 40)
	maximum = 0.3773 (at node 26)
Injected flit rate average = 0.364919
	minimum = 0.206 (at node 46)
	maximum = 0.4276 (at node 0)
Accepted flit rate average= 0.362352
	minimum = 0.3505 (at node 40)
	maximum = 0.3773 (at node 26)
Injected packet length average = 1
Accepted packet length average = 1
Total in-flight flits = 4177 (4177 measured)
Buffer busy stall rate = 2.58977
Buffer conflict stall rate = 3.55545
Buffer full stall rate = 0.724875
Buffer reserved stall rate = 4.33514
Crossbar conflict stall rate = 14.9171
latency change    = 0.600982
throughput change = 0.0354053
latency change    = 0.610791
throughput change = 0.151411
DVFS epoch t=40000 total_power=0.601748 headroom=-0.00174756 avg_power=0.665005 domains{0:freq=0.6325,power=0.601748} routers{0:freq=0.6325,power=0.0352402, 1:freq=0.757494,power=0.0406069, 2:freq=0.66974,power=0.0366113, 3:freq=0.661827,power=0.0359152, 4:freq=0.661688,power=0.0364913, 5:freq=0.646628,power=0.0358671, 6:freq=0.663769,power=0.036482, 7:freq=0.656653,power=0.035813, 8:freq=0.651866,power=0.0354803, 9:freq=0.762522,power=0.0399752, 10:freq=0.650774,power=0.0348871, 11:freq=0.837411,power=0.0426217, 12:freq=0.642436,power=0.0357993, 13:freq=0.666917,power=0.0369329, 14:freq=0.775011,power=0.0415461, 15:freq=0.777968,power=0.0414779}
QUEUE_PID_DIFF: epoch=4 max_occ=0.583594 avg_occ=0.352148 budget=0.995631 headroom=-0.00174756
Class 0:
Packet latency average = 318.872
	minimum = 6
	maximum = 7975
Network latency average = 236.148
	minimum = 6
	maximum = 5697
Slowest packet = 1336569
Flit latency average = 235.735
	minimum = 6
	maximum = 5697
Slowest flit = 1437924
Fragmentation average = 0
	minimum = 0
	maximum = 0
Injected packet rate average = 0.177472
	minimum = 0.14935 (at node 31)
	maximum = 0.1846 (at node 33)
Accepted packet rate average = 0.174986
	minimum = 0.1673 (at node 18)
	maximum = 0.18255 (at node 31)
Injected flit rate average = 0.177472
	minimum = 0.14935 (at node 31)
	maximum = 0.1846 (at node 33)
Accepted flit rate average= 0.174986
	minimum = 0.1673 (at node 18)
	maximum = 0.18255 (at node 31)
Injected packet length average = 1
Accepted packet length average = 1
Total in-flight flits = 4278 (4278 measured)
Buffer busy stall rate = 4.65308
Buffer conflict stall rate = 4.07978
Buffer full stall rate = 1.12068
Buffer reserved stall rate = 2.2572
Crossbar conflict stall rate = 5.82868
Class 1:
Packet latency average = 689.72
	minimum = 6
	maximum = 12440
Network latency average = 169.311
	minimum = 6
	maximum = 5766
Slowest packet = 1336902
Flit latency average = 169.213
	minimum = 6
	maximum = 5766
Slowest flit = 1336902
Fragmentation average = 0
	minimum = 0
	maximum = 0
Injected packet rate average = 0.351367
	minimum = 0.104 (at node 47)
	maximum = 0.42515 (at node 40)
Accepted packet rate average = 0.350426
	minimum = 0.3385 (at node 40)
	maximum = 0.3606 (at node 53)
Injected flit rate average = 0.351367
	minimum = 0.104 (at node 47)
	maximum = 0.42515 (at node 40)
Accepted flit rate average= 0.350426
	minimum = 0.3385 (at node 40)
	maximum = 0.3606 (at node 53)
Injected packet length average = 1
Accepted packet length average = 1
Total in-flight flits = 3743 (3743 measured)
Buffer busy stall rate = 4.0537
Buffer conflict stall rate = 4.92096
Buffer full stall rate = 1.26186
Buffer reserved stall rate = 4.25805
Crossbar conflict stall rate = 12.4369
latency change    = 0.334904
throughput change = 0.017421
latency change    = 0.684095
throughput change = 0.0340323
DVFS epoch t=50000 total_power=0.720315 headroom=-0.120315 avg_power=0.676067 domains{0:freq=0.966961,power=0.720315} routers{0:freq=0.966961,power=0.0507392, 1:freq=0.735579,power=0.0404512, 2:freq=0.846976,power=0.0452274, 3:freq=0.908338,power=0.0474674, 4:freq=0.909848,power=0.0472785, 5:freq=0.622,power=0.0349535, 6:freq=0.879818,power=0.0456329, 7:freq=0.908222,power=0.04649, 8:freq=0.992356,power=0.0521558, 9:freq=0.936633,power=0.049793, 10:freq=0.889691,power=0.0473238, 11:freq=0.997816,power=0.0512991, 12:freq=0.847185,power=0.0445806, 13:freq=0.707535,power=0.0382987, 14:freq=0.709862,power=0.0380418, 15:freq=0.774525,power=0.0405821}
QUEUE_PID_DIFF: epoch=5 max_occ=0.871875 avg_occ=0.360498 budget=0.699212 headroom=-0.120315
Class 0:
Packet latency average = 351.252
	minimum = 6
	maximum = 7975
Network latency average = 254.056
	minimum = 6
	maximum = 5697
Slowest packet = 1336569
Flit latency average = 253.729
	minimum = 6
	maximum = 5697
Slowest flit = 1437924
Fragmentation average = 0
	minimum = 0
	maximum = 0
Injected packet rate average = 0.179468
	minimum = 0.160767 (at node 15)
	maximum = 0.1832 (at node 36)
Accepted packet rate average = 0.178243
	minimum = 0.171133 (at node 14)
	maximum = 0.1834 (at node 34)
Injected flit rate average = 0.179468
	minimum = 0.160767 (at node 15)
	maximum = 0.1832 (at node 36)
Accepted flit rate average= 0.178243
	minimum = 0.171133 (at node 14)
	maximum = 0.1834 (at node 34)
Injected packet length average = 1
Accepted packet length average = 1
Total in-flight flits = 3448 (3448 measured)
Buffer busy stall rate = 4.74854
Buffer conflict stall rate = 4.61797
Buffer full stall rate = 1.0818
Buffer reserved stall rate = 2.25539
Crossbar conflict stall rate = 6.11266
Class 1:
Packet latency average = 1343.69
	minimum = 6
	maximum = 24072
Network latency average = 180.445
	minimum = 6
	maximum = 6264
Slowest packet = 1336902
Flit latency average = 180.337
	minimum = 6
	maximum = 6264
Slowest flit = 1664764
Fragmentation average = 0
	minimum = 0
	maximum = 0
Injected packet rate average = 0.349336
	minimum = 0.0854667 (at node 47)
	maximum = 0.425533 (at node 48)
Accepted packet rate average = 0.348523
	minimum = 0.340933 (at node 40)
	maximum = 0.356467 (at node 53)
Injected flit rate average = 0.349336
	minimum = 0.0854667 (at node 47)
	maximum = 0.425533 (at node 48)
Accepted flit rate average= 0.348523
	minimum = 0.340933 (at node 40)
	maximum = 0.356467 (at node 53)
Injected packet length average = 1
Accepted packet length average = 1
Total in-flight flits = 4096 (4096 measured)
Buffer busy stall rate = 4.01078
Buffer conflict stall rate = 5.41165
Buffer full stall rate = 1.18173
Buffer reserved stall rate = 4.08223
Crossbar conflict stall rate = 12.8124
latency change    = 0.0921845
throughput change = 0.0182744
latency change    = 0.486696
throughput change = 0.0054598
DVFS epoch t=60000 total_power=0.662808 headroom=-0.0628075 avg_power=0.673857 domains{0:freq=0.652856,power=0.662808} routers{0:freq=0.652856,power=0.0375435, 1:freq=0.686418,power=0.0391049, 2:freq=0.734904,power=0.0410598, 3:freq=0.746541,power=0.0403716, 4:freq=0.731974,power=0.0411888, 5:freq=0.9,power=0.0483336, 6:freq=0.751397,power=0.0408711, 7:freq=0.755939,power=0.0424368, 8:freq=0.656412,power=0.0378734, 9:freq=0.730721,power=0.0412732, 10:freq=0.743095,power=0.0419338, 11:freq=0.754373,power=0.0414894, 12:freq=0.747794,power=0.0415684, 13:freq=0.9,power=0.0481791, 14:freq=0.692965,power=0.0393021, 15:freq=0.741177,power=0.040278}
QUEUE_PID_DIFF: epoch=6 max_occ=0.628125 avg_occ=0.328418 budget=0.842981 headroom=-0.0628075
Class 0:
Packet latency average = 371.325
	minimum = 6
	maximum = 8313
Network latency average = 266.991
	minimum = 6
	maximum = 6344
Slowest packet = 1336569
Flit latency average = 266.714
	minimum = 6
	maximum = 6344
Slowest flit = 1980763
Fragmentation average = 0
	minimum = 0
	maximum = 0
Injected packet rate average = 0.178682
	minimum = 0.15505 (at node 63)
	maximum = 0.1842 (at node 6)
Accepted packet rate average = 0.177343
	minimum = 0.171075 (at node 14)
	maximum = 0.1821 (at node 45)
Injected flit rate average = 0.178682
	minimum = 0.15505 (at node 63)
	maximum = 0.1842 (at node 6)
Accepted flit rate average= 0.177343
	minimum = 0.171075 (at node 14)
	maximum = 0.1821 (at node 45)
Injected packet length average = 1
Accepted packet length average = 1
Total in-flight flits = 4524 (4524 measured)
Buffer busy stall rate = 5.25008
Buffer conflict stall rate = 5.02105
Buffer full stall rate = 1.21642
Buffer reserved stall rate = 2.2787
Crossbar conflict stall rate = 5.94635
Class 1:
Packet latency average = 1757.32
	minimum = 6
	maximum = 26413
Network latency average = 189.687
	minimum = 6
	maximum = 6264
Slowest packet = 1336902
Flit latency average = 189.579
	minimum = 6
	maximum = 6264
Slowest flit = 1664764
Fragmentation average = 0
	minimum = 0
	maximum = 0
Injected packet rate average = 0.34503
	minimum = 0.065375 (at node 47)
	maximum = 0.423175 (at node 40)
Accepted packet rate average = 0.344308
	minimum = 0.33905 (at node 40)
	maximum = 0.3526 (at node 53)
Injected flit rate average = 0.34503
	minimum = 0.065375 (at node 47)
	maximum = 0.423175 (at node 40)
Accepted flit rate average= 0.344308
	minimum = 0.33905 (at node 40)
	maximum = 0.3526 (at node 53)
Injected packet length average = 1
Accepted packet length average = 1
Total in-flight flits = 4388 (4388 measured)
Buffer busy stall rate = 4.38866
Buffer conflict stall rate = 5.89212
Buffer full stall rate = 1.36426
Buffer reserved stall rate = 4.06767
Crossbar conflict stall rate = 12.4624
latency change    = 0.0540585
throughput change = 0.00507859
latency change    = 0.235376
throughput change = 0.0122423
DVFS epoch t=70000 total_power=0.70942 headroom=-0.10942 avg_power=0.678938 domains{0:freq=0.577777,power=0.70942} routers{0:freq=0.577777,power=0.0341536, 1:freq=0.708096,power=0.0401345, 2:freq=0.709498,power=0.0397115, 3:freq=0.891313,power=0.0474729, 4:freq=0.728898,power=0.0420905, 5:freq=0.921491,power=0.0510405, 6:freq=0.882408,power=0.0488005, 7:freq=0.921491,power=0.0503699, 8:freq=0.621412,power=0.0365504, 9:freq=0.699837,power=0.0402202, 10:freq=0.712416,power=0.040528, 11:freq=0.870584,power=0.046763, 12:freq=0.862272,power=0.0477731, 13:freq=0.921491,power=0.0498156, 14:freq=0.872153,power=0.0484664, 15:freq=0.84546,power=0.0455295}
QUEUE_PID_DIFF: epoch=7 max_occ=0.740625 avg_occ=0.391992 budget=0.72645 headroom=-0.10942
Class 0:
Packet latency average = 407.127
	minimum = 6
	maximum = 10576
Network latency average = 278.604
	minimum = 6
	maximum = 6344
Slowest packet = 1336569
Flit latency average = 278.361
	minimum = 6
	maximum = 6344
Slowest flit = 1980763
Fragmentation average = 0
	minimum = 0
	maximum = 0
Injected packet rate average = 0.178598
	minimum = 0.1472 (at node 63)
	maximum = 0.18268 (at node 6)
Accepted packet rate average = 0.177683
	minimum = 0.17296 (at node 44)
	maximum = 0.18234 (at node 31)
Injected flit rate average = 0.178598
	minimum = 0.1472 (at node 63)
	maximum = 0.18268 (at node 6)
Accepted flit rate average= 0.177683
	minimum = 0.17296 (at node 44)
	maximum = 0.18234 (at node 31)
Injected packet length average = 1
Accepted packet length average = 1
Total in-flight flits = 4020 (4020 measured)
Buffer busy stall rate = 5.63772
Buffer conflict stall rate = 5.2637
Buffer full stall rate = 1.33608
Buffer reserved stall rate = 2.27884
Crossbar conflict stall rate = 5.91274
Class 1:
Packet latency average = 2259.78
	minimum = 6
	maximum = 31008
Network latency average = 195.07
	minimum = 6
	maximum = 6264
Slowest packet = 1336902
Flit latency average = 194.971
	minimum = 6
	maximum = 6264
Slowest flit = 1664764
Fragmentation average = 0
	minimum = 0
	maximum = 0
Injected packet rate average = 0.342404
	minimum = 0.0523 (at node 47)
	maximum = 0.42394 (at node 48)
Accepted packet rate average = 0.341849
	minimum = 0.33734 (at node 40)
	maximum = 0.35062 (at node 53)
Injected flit rate average = 0.342404
	minimum = 0.0523 (at node 47)
	maximum = 0.42394 (at node 48)
Accepted flit rate average= 0.341849
	minimum = 0.33734 (at node 40)
	maximum = 0.35062 (at node 53)
Injected packet length average = 1
Accepted packet length average = 1
Total in-flight flits = 4309 (4309 measured)
Buffer busy stall rate = 4.5831
Buffer conflict stall rate = 6.05054
Buffer full stall rate = 1.46108
Buffer reserved stall rate = 3.99166
Crossbar conflict stall rate = 12.366
latency change    = 0.087938
throughput change = 0.0019166
latency change    = 0.22235
throughput change = 0.00719158
DVFS epoch t=80000 total_power=0.734995 headroom=-0.134995 avg_power=0.685945 domains{0:freq=0.9,power=0.734995} routers{0:freq=0.9,power=0.0506841, 1:freq=0.663056,power=0.0393443, 2:freq=0.84983,power=0.0473024, 3:freq=0.9,power=0.0490421, 4:freq=0.872657,power=0.0499018, 5:freq=0.735636,power=0.0429522, 6:freq=0.762648,power=0.0445568, 7:freq=0.765714,power=0.0436023, 8:freq=0.618401,power=0.0368495, 9:freq=0.837641,power=0.046814, 10:freq=0.676796,power=0.0386266, 11:freq=0.9,power=0.0486844, 12:freq=0.9,power=0.0512793, 13:freq=0.770694,power=0.045161, 14:freq=0.9,power=0.0505204, 15:freq=0.9,power=0.0496744}
QUEUE_PID_DIFF: epoch=8 max_occ=0.528125 avg_occ=0.349951 budget=0.662511 headroom=-0.134995
Class 0:
Packet latency average = 453.268
	minimum = 6
	maximum = 12690
Network latency average = 282.102
	minimum = 6
	maximum = 6344
Slowest packet = 1336569
Flit latency average = 281.894
	minimum = 6
	maximum = 6344
Slowest flit = 1980763
Fragmentation average = 0
	minimum = 0
	maximum = 0
Injected packet rate average = 0.178586
	minimum = 0.149183 (at node 63)
	maximum = 0.182933 (at node 38)
Accepted packet rate average = 0.17796
	minimum = 0.174983 (at node 32)
	maximum = 0.181817 (at node 45)
Injected flit rate average = 0.178586
	minimum = 0.149183 (at node 63)
	maximum = 0.182933 (at node 38)
Accepted flit rate average= 0.17796
	minimum = 0.174983 (at node 32)
	maximum = 0.181817 (at node 45)
Injected packet length average = 1
Accepted packet length average = 1
Total in-flight flits = 3497 (3497 measured)
Buffer busy stall rate = 5.90156
Buffer conflict stall rate = 5.38794
Buffer full stall rate = 1.41657
Buffer reserved stall rate = 2.28761
Crossbar conflict stall rate = 5.79336
Class 1:
Packet latency average = 2671.29
	minimum = 6
	maximum = 42640
Network latency average = 195.204
	minimum = 6
	maximum = 6264
Slowest packet = 1336902
Flit latency average = 195.12
	minimum = 6
	maximum = 6264
Slowest flit = 1664764
Fragmentation average = 0
	minimum = 0
	maximum = 0
Injected packet rate average = 0.34157
	minimum = 0.0435833 (at node 47)
	maximum = 0.422633 (at node 18)
Accepted packet rate average = 0.341257
	minimum = 0.3366 (at node 59)
	maximum = 0.348983 (at node 53)
Injected flit rate average = 0.34157
	minimum = 0.0435833 (at node 47)
	maximum = 0.422633 (at node 18)
Accepted flit rate average= 0.341257
	minimum = 0.3366 (at node 59)
	maximum = 0.348983 (at node 53)
Injected packet length average = 1
Accepted packet length average = 1
Total in-flight flits = 3734 (3734 measured)
Buffer busy stall rate = 4.65473
Buffer conflict stall rate = 6.11436
Buffer full stall rate = 1.55379
Buffer reserved stall rate = 3.97357
Crossbar conflict stall rate = 12.1143
latency change    = 0.101796
throughput change = 0.00155816
latency change    = 0.154048
throughput change = 0.0017373
DVFS epoch t=90000 total_power=0.765775 headroom=-0.165775 avg_power=0.694815 domains{0:freq=0.635928,power=0.765775} routers{0:freq=0.635928,power=0.0389495, 1:freq=0.833246,power=0.0485933, 2:freq=0.9,power=0.0513773, 3:freq=0.9,power=0.0507075, 4:freq=0.690825,power=0.0416864, 5:freq=0.851396,power=0.0496524, 6:freq=0.890996,power=0.0512221, 7:freq=0.885587,power=0.0498398, 8:freq=0.836243,power=0.0489294, 9:freq=0.719078,power=0.0431949, 10:freq=0.821676,power=0.0477472, 11:freq=0.9,power=0.0506658, 12:freq=0.9,power=0.0514093, 13:freq=0.674431,power=0.0407187, 14:freq=0.9,power=0.0508002, 15:freq=0.9,power=0.0502811}
QUEUE_PID_DIFF: epoch=9 max_occ=0.533594 avg_occ=0.317676 budget=0.585562 headroom=-0.165775
Class 0:
Packet latency average = 496.03
	minimum = 6
	maximum = 17850
Network latency average = 292.922
	minimum = 6
	maximum = 6480
Slowest packet = 1336569
Flit latency average = 292.728
	minimum = 6
	maximum = 6480
Slowest flit = 3048189
Fragmentation average = 0
	minimum = 0
	maximum = 0
Injected packet rate average = 0.178129
	minimum = 0.139929 (at node 63)
	maximum = 0.182471 (at node 6)
Accepted packet rate average = 0.177384
	minimum = 0.173886 (at node 62)
	maximum = 0.1811 (at node 45)
Injected flit rate average = 0.178129
	minimum = 0.139929 (at node 63)
	maximum = 0.182471 (at node 6)
Accepted flit rate average= 0.177384
	minimum = 0.173886 (at node 62)
	maximum = 0.1811 (at node 45)
Injected packet length average = 1
Accepted packet length average = 1
Total in-flight flits = 4434 (4434 measured)
Buffer busy stall rate = 6.34671
Buffer conflict stall rate = 5.60996
Buffer full stall rate = 1.53381
Buffer reserved stall rate = 2.3209
Crossbar conflict stall rate = 5.67492
Class 1:
Packet latency average = 2974.1
	minimum = 6
	maximum = 49828
Network latency average = 200.224
	minimum = 6
	maximum = 6264
Slowest packet = 1336902
Flit latency average = 200.143
	minimum = 6
	maximum = 6264
Slowest flit = 1664764
Fragmentation average = 0
	minimum = 0
	maximum = 0
Injected packet rate average = 0.335054
	minimum = 0.0373571 (at node 47)
	maximum = 0.422357 (at node 2)
Accepted packet rate average = 0.334631
	minimum = 0.3301 (at node 59)
	maximum = 0.342571 (at node 53)
Injected flit rate average = 0.335054
	minimum = 0.0373571 (at node 47)
	maximum = 0.422357 (at node 2)
Accepted flit rate average= 0.334631
	minimum = 0.3301 (at node 59)
	maximum = 0.342571 (at node 53)
Injected packet length average = 1
Accepted packet length average = 1
Total in-flight flits = 4438 (4438 measured)
Buffer busy stall rate = 4.83673
Buffer conflict stall rate = 6.17406
Buffer full stall rate = 1.66479
Buffer reserved stall rate = 3.97304
Crossbar conflict stall rate = 11.731
latency change    = 0.0862087
throughput change = 0.00324868
latency change    = 0.101817
throughput change = 0.0198001
DVFS epoch t=100000 total_power=0.756545 headroom=-0.156545 avg_power=0.700988 domains{0:freq=0.824278,power=0.756545} routers{0:freq=0.824278,power=0.0485672, 1:freq=0.62931,power=0.0388713, 2:freq=0.9,power=0.0516275, 3:freq=0.9,power=0.0509109, 4:freq=0.815285,power=0.0483076, 5:freq=0.63294,power=0.0391026, 6:freq=0.701939,power=0.0423778, 7:freq=0.9,power=0.051529, 8:freq=0.589311,power=0.0365574, 9:freq=0.884472,power=0.0508728, 10:freq=0.9,power=0.051328, 11:freq=0.9,power=0.0509575, 12:freq=0.705749,power=0.0423963, 13:freq=0.889864,power=0.0513565, 14:freq=0.9,power=0.0511798, 15:freq=0.9,power=0.0506025}
QUEUE_PID_DIFF: epoch=10 max_occ=0.599219 avg_occ=0.377344 budget=0.608638 headroom=-0.156545
Class 0:
Packet latency average = 563.236
	minimum = 6
	maximum = 18775
Network latency average = 290.933
	minimum = 6
	maximum = 6918
Slowest packet = 1336569
Flit latency average = 290.766
	minimum = 6
	maximum = 6918
Slowest flit = 3315369
Fragmentation average = 0
	minimum = 0
	maximum = 0
Injected packet rate average = 0.178769
	minimum = 0.155463 (at node 63)
	maximum = 0.1824 (at node 23)
Accepted packet rate average = 0.178304
	minimum = 0.175325 (at node 62)
	maximum = 0.180712 (at node 19)
Injected flit rate average = 0.178769
	minimum = 0.155463 (at node 63)
	maximum = 0.1824 (at node 23)
Accepted flit rate average= 0.178304
	minimum = 0.175325 (at node 62)
	maximum = 0.180712 (at node 19)
Injected packet length average = 1
Accepted packet length average = 1
Total in-flight flits = 3465 (3465 measured)
Buffer busy stall rate = 6.31491
Buffer conflict stall rate = 5.63002
Buffer full stall rate = 1.52722
Buffer reserved stall rate = 2.3401
Crossbar conflict stall rate = 5.69137
Class 1:
Packet latency average = 3654.6
	minimum = 6
	maximum = 60033
Network latency average = 198.033
	minimum = 6
	maximum = 6264
Slowest packet = 1336902
Flit latency average = 197.966
	minimum = 6
	maximum = 6264
Slowest flit = 1664764
Fragmentation average = 0
	minimum = 0
	maximum = 0
Injected packet rate average = 0.340293
	minimum = 0.0326875 (at node 47)
	maximum = 0.422675 (at node 51)
Accepted packet rate average = 0.339985
	minimum = 0.336487 (at node 59)
	maximum = 0.346338 (at node 53)
Injected flit rate average = 0.340293
	minimum = 0.0326875 (at node 47)
	maximum = 0.422675 (at node 51)
Accepted flit rate average= 0.339985
	minimum = 0.336487 (at node 59)
	maximum = 0.346338 (at node 53)
Injected packet length average = 1
Accepted packet length average = 1
Total in-flight flits = 4107 (4107 measured)
Buffer busy stall rate = 4.7795
Buffer conflict stall rate = 6.21207
Buffer full stall rate = 1.64292
Buffer reserved stall rate = 4.03623
Crossbar conflict stall rate = 11.9399
latency change    = 0.119322
throughput change = 0.00515944
latency change    = 0.186203
throughput change = 0.0157482
DVFS epoch t=110000 total_power=0.821998 headroom=-0.221998 avg_power=0.711989 domains{0:freq=0.686682,power=0.821998} routers{0:freq=0.686682,power=0.0435421, 1:freq=0.823622,power=0.0507352, 2:freq=0.9,power=0.0542506, 3:freq=0.9,power=0.0531279, 4:freq=0.693977,power=0.0434197, 5:freq=0.826468,power=0.0497275, 6:freq=0.63023,power=0.040227, 7:freq=0.9,power=0.0528952, 8:freq=0.867532,power=0.0530968, 9:freq=0.9,power=0.0550848, 10:freq=0.9,power=0.0544612, 11:freq=0.9,power=0.0532405, 12:freq=0.891326,power=0.0545378, 13:freq=0.9,power=0.0551629, 14:freq=0.9,power=0.0548997, 15:freq=0.9,power=0.0535888}
QUEUE_PID_DIFF: epoch=11 max_occ=0.605469 avg_occ=0.324609 budget=0.5 headroom=-0.221998
Class 0:
Packet latency average = 592.258
	minimum = 6
	maximum = 18775
Network latency average = 296.906
	minimum = 6
	maximum = 8288
Slowest packet = 1336569
Flit latency average = 296.751
	minimum = 6
	maximum = 8288
Slowest flit = 3843536
Fragmentation average = 0
	minimum = 0
	maximum = 0
Injected packet rate average = 0.178286
	minimum = 0.150611 (at node 15)
	maximum = 0.182278 (at node 23)
Accepted packet rate average = 0.177767
	minimum = 0.175156 (at node 61)
	maximum = 0.180556 (at node 45)
Injected flit rate average = 0.178286
	minimum = 0.150611 (at node 15)
	maximum = 0.182278 (at node 23)
Accepted flit rate average= 0.177767
	minimum = 0.175156 (at node 61)
	maximum = 0.180556 (at node 45)
Injected packet length average = 1
Accepted packet length average = 1
Total in-flight flits = 4089 (4089 measured)
Buffer busy stall rate = 6.49933
Buffer conflict stall rate = 5.73783
Buffer full stall rate = 1.57823
Buffer reserved stall rate = 2.33395
Crossbar conflict stall rate = 5.67136
Class 1:
Packet latency average = 4002.29
	minimum = 6
	maximum = 64903
Network latency average = 201.09
	minimum = 6
	maximum = 6264
Slowest packet = 1336902
Flit latency average = 201.026
	minimum = 6
	maximum = 6264
Slowest flit = 1664764
Fragmentation average = 0
	minimum = 0
	maximum = 0
Injected packet rate average = 0.337374
	minimum = 0.0290556 (at node 47)
	maximum = 0.4228 (at node 40)
Accepted packet rate average = 0.337044
	minimum = 0.333556 (at node 4)
	maximum = 0.343033 (at node 53)
Injected flit rate average = 0.337374
	minimum = 0.0290556 (at node 47)
	maximum = 0.4228 (at node 40)
Accepted flit rate average= 0.337044
	minimum = 0.333556 (at node 4)
	maximum = 0.343033 (at node 53)
Injected packet length average = 1
Accepted packet length average = 1
Total in-flight flits = 4438 (4438 measured)
Buffer busy stall rate = 4.7832
Buffer conflict stall rate = 6.26541
Buffer full stall rate = 1.66907
Buffer reserved stall rate = 3.96856
Crossbar conflict stall rate = 11.864
latency change    = 0.0490016
throughput change = 0.00302326
latency change    = 0.0868732
throughput change = 0.00872442
DVFS epoch t=120000 total_power=0.768282 headroom=-0.168282 avg_power=0.71668 domains{0:freq=0.827783,power=0.768282} routers{0:freq=0.827783,power=0.0505516, 1:freq=0.604714,power=0.0389275, 2:freq=0.685645,power=0.0424279, 3:freq=0.9,power=0.052924, 4:freq=0.840465,power=0.0519318, 5:freq=0.9,power=0.0542644, 6:freq=0.891207,power=0.0552356, 7:freq=0.9,power=0.0536537, 8:freq=0.668426,power=0.0424628, 9:freq=0.61947,power=0.039718, 10:freq=0.677581,power=0.0422016, 11:freq=0.9,power=0.0529643, 12:freq=0.656228,power=0.04169, 13:freq=0.656412,power=0.041852, 14:freq=0.9,power=0.0541925, 15:freq=0.9,power=0.0532848}
QUEUE_PID_DIFF: epoch=12 max_occ=0.580469 avg_occ=0.364014 budget=0.579294 headroom=-0.168282
Class 0:
Packet latency average = 640.605
	minimum = 6
	maximum = 21121
Network latency average = 301.518
	minimum = 6
	maximum = 10351
Slowest packet = 1336569
Flit latency average = 301.374
	minimum = 6
	maximum = 10351
Slowest flit = 4102012
Fragmentation average = 0
	minimum = 0
	maximum = 0
Injected packet rate average = 0.178328
	minimum = 0.14677 (at node 63)
	maximum = 0.18219 (at node 23)
Accepted packet rate average = 0.177743
	minimum = 0.17531 (at node 32)
	maximum = 0.18015 (at node 29)
Injected flit rate average = 0.178328
	minimum = 0.14677 (at node 63)
	maximum = 0.18219 (at node 23)
Accepted flit rate average= 0.177743
	minimum = 0.17531 (at node 32)
	maximum = 0.18015 (at node 29)
Injected packet length average = 1
Accepted packet length average = 1
Total in-flight flits = 4845 (4845 measured)
Buffer busy stall rate = 6.71767
Buffer conflict stall rate = 5.84535
Buffer full stall rate = 1.62831
Buffer reserved stall rate = 2.36064
Crossbar conflict stall rate = 5.62785
Class 1:
Packet latency average = 4354.95
	minimum = 6
	maximum = 76753
Network latency average = 203.078
	minimum = 6
	maximum = 6264
Slowest packet = 1336902
Flit latency average = 203.018
	minimum = 6
	maximum = 6264
Slowest flit = 1664764
Fragmentation average = 0
	minimum = 0
	maximum = 0
Injected packet rate average = 0.334624
	minimum = 0.02615 (at node 47)
	maximum = 0.42211 (at node 18)
Accepted packet rate average = 0.33442
	minimum = 0.33142 (at node 4)
	maximum = 0.33968 (at node 53)
Injected flit rate average = 0.334624
	minimum = 0.02615 (at node 47)
	maximum = 0.42211 (at node 18)
Accepted flit rate average= 0.33442
	minimum = 0.33142 (at node 4)
	maximum = 0.33968 (at node 53)
Injected packet length average = 1
Accepted packet length average = 1
Total in-flight flits = 3847 (3847 measured)
Buffer busy stall rate = 4.87076
Buffer conflict stall rate = 6.27316
Buffer full stall rate = 1.70596
Buffer reserved stall rate = 3.96422
Crossbar conflict stall rate = 11.7116
latency change    = 0.0754714
throughput change = 0.000134206
latency change    = 0.0809778
throughput change = 0.00784822
DVFS epoch t=130000 total_power=0.81683 headroom=-0.21683 avg_power=0.724384 domains{0:freq=0.657737,power=0.81683} routers{0:freq=0.657737,power=0.0431149, 1:freq=0.865845,power=0.0543923, 2:freq=0.815045,power=0.0514423, 3:freq=0.9,power=0.0551732, 4:freq=0.614985,power=0.0403129, 5:freq=0.9,power=0.0551613, 6:freq=0.9,power=0.0548154, 7:freq=0.9,power=0.0542978, 8:freq=0.802945,power=0.0497716, 9:freq=0.59359,power=0.038992, 10:freq=0.819883,power=0.0504656, 11:freq=0.9,power=0.0543288, 12:freq=0.792392,power=0.049954, 13:freq=0.895142,power=0.0558807, 14:freq=0.9,power=0.0545789, 15:freq=0.9,power=0.0541487}
QUEUE_PID_DIFF: epoch=13 max_occ=0.684375 avg_occ=0.388428 budget=0.5 headroom=-0.21683
Class 0:
Packet latency average = 694.856
	minimum = 6
	maximum = 23931
Network latency average = 305.133
	minimum = 6
	maximum = 12634
Slowest packet = 1336569
Flit latency average = 305
	minimum = 6
	maximum = 12634
Slowest flit = 4102109
Fragmentation average = 0
	minimum = 0
	maximum = 0
Injected packet rate average = 0.178622
	minimum = 0.152273 (at node 47)
	maximum = 0.182118 (at node 36)
Accepted packet rate average = 0.17818
	minimum = 0.175864 (at node 42)
	maximum = 0.180582 (at node 45)
Injected flit rate average = 0.178622
	minimum = 0.152273 (at node 47)
	maximum = 0.182118 (at node 36)
Accepted flit rate average= 0.17818
	minimum = 0.175864 (at node 42)
	maximum = 0.180582 (at node 45)
Injected packet length average = 1
Accepted packet length average = 1
Total in-flight flits = 4210 (4210 measured)
Buffer busy stall rate = 6.86028
Buffer conflict stall rate = 5.93664
Buffer full stall rate = 1.65478
Buffer reserved stall rate = 2.38087
Crossbar conflict stall rate = 5.59473
Class 1:
Packet latency average = 4855.84
	minimum = 6
	maximum = 86951
Network latency average = 204.865
	minimum = 6
	maximum = 6264
Slowest packet = 1336902
Flit latency average = 204.809
	minimum = 6
	maximum = 6264
Slowest flit = 1664764
Fragmentation average = 0
	minimum = 0
	maximum = 0
Injected packet rate average = 0.333302
	minimum = 0.0237727 (at node 47)
	maximum = 0.4224 (at node 56)
Accepted packet rate average = 0.333063
	minimum = 0.329636 (at node 48)
	maximum = 0.3381 (at node 53)
Injected flit rate average = 0.333302
	minimum = 0.0237727 (at node 47)
	maximum = 0.4224 (at node 56)
Accepted flit rate average= 0.333063
	minimum = 0.329636 (at node 48)
	maximum = 0.3381 (at node 53)
Injected packet length average = 1
Accepted packet length average = 1
Total in-flight flits = 4224 (4224 measured)
Buffer busy stall rate = 4.96693
Buffer conflict stall rate = 6.35194
Buffer full stall rate = 1.74627
Buffer reserved stall rate = 3.98197
Crossbar conflict stall rate = 11.5733
latency change    = 0.0780751
throughput change = 0.00245347
latency change    = 0.103153
throughput change = 0.00407449
DVFS epoch t=140000 total_power=0.855651 headroom=-0.255651 avg_power=0.73376 domains{0:freq=0.839756,power=0.855651} routers{0:freq=0.839756,power=0.0531461, 1:freq=0.592444,power=0.0398282, 2:freq=0.9,power=0.0557988, 3:freq=0.9,power=0.0554948, 4:freq=0.846449,power=0.0538469, 5:freq=0.9,power=0.0560993, 6:freq=0.9,power=0.0556942, 7:freq=0.685645,power=0.0450851, 8:freq=0.672334,power=0.0445144, 9:freq=0.9,power=0.0568978, 10:freq=0.9,power=0.0561541, 11:freq=0.9,power=0.0554136, 12:freq=0.890012,power=0.0568815, 13:freq=0.9,power=0.0574632, 14:freq=0.9,power=0.057109, 15:freq=0.9,power=0.056224}
QUEUE_PID_DIFF: epoch=14 max_occ=0.646094 avg_occ=0.365967 budget=0.5 headroom=-0.255651
Class 0:
Packet latency average = 726.097
	minimum = 6
	maximum = 23931
Network latency average = 306.495
	minimum = 6
	maximum = 12634
Slowest packet = 1336569
Flit latency average = 306.372
	minimum = 6
	maximum = 12634
Slowest flit = 4102109
Fragmentation average = 0
	minimum = 0
	maximum = 0
Injected packet rate average = 0.178857
	minimum = 0.150725 (at node 47)
	maximum = 0.181925 (at node 34)
Accepted packet rate average = 0.178483
	minimum = 0.17605 (at node 32)
	maximum = 0.181033 (at node 45)
Injected flit rate average = 0.178857
	minimum = 0.150725 (at node 47)
	maximum = 0.181925 (at node 34)
Accepted flit rate average= 0.178483
	minimum = 0.17605 (at node 32)
	maximum = 0.181033 (at node 45)
Injected packet length average = 1
Accepted packet length average = 1
Total in-flight flits = 3963 (3963 measured)
Buffer busy stall rate = 6.8726
Buffer conflict stall rate = 5.99458
Buffer full stall rate = 1.66337
Buffer reserved stall rate = 2.39693
Crossbar conflict stall rate = 5.60401
Class 1:
Packet latency average = 5464.78
	minimum = 6
	maximum = 94947
Network latency average = 206.225
	minimum = 6
	maximum = 6264
Slowest packet = 1336902
Flit latency average = 206.171
	minimum = 6
	maximum = 6264
Slowest flit = 1664764
Fragmentation average = 0
	minimum = 0
	maximum = 0
Injected packet rate average = 0.333375
	minimum = 0.0217917 (at node 47)
	maximum = 0.422808 (at node 18)
Accepted packet rate average = 0.333165
	minimum = 0.329242 (at node 48)
	maximum = 0.338225 (at node 53)
Injected flit rate average = 0.333375
	minimum = 0.0217917 (at node 47)
	maximum = 0.422808 (at node 18)
Accepted flit rate average= 0.333165
	minimum = 0.329242 (at node 48)
	maximum = 0.338225 (at node 53)
Injected packet length average = 1
Accepted packet length average = 1
Total in-flight flits = 4151 (4151 measured)
Buffer busy stall rate = 4.98166
Buffer conflict stall rate = 6.39776
Buffer full stall rate = 1.76409
Buffer reserved stall rate = 4.00274
Crossbar conflict stall rate = 11.5877
latency change    = 0.0430253
throughput change = 0.00170039
latency change    = 0.11143
throughput change = 0.000305943
Average latency for class 1 exceeded 5000 cycles. Aborting simulation.
Too many sample periods needed to converge
Simulation unstable, ending ...
Total run time 155.216
1.85573e-13
1.01182e-14
8.2655e-14
1.09233e-13
1.89983e-13
5.84568e-13
3.37458e-13
1.11201e-12
8.52002e-14
1.49959e-12
4.63932e-14
1.01182e-14
2.06637e-14
1.56046e-14
1.89983e-13
8.35097e-14
8.43644e-14
3.57857e-13
2.13e-14
4.50637e-13
2.31966e-14
1.01182e-14
3.3062e-13
4.83744e-13
1.89983e-13
2.5888e-12
1.34983e-12
4.12861e-12
3.40801e-13
4.97629e-12
2.8975e-11
4.62959e-11
1.85573e-13
1.01182e-14
8.2655e-14
1.09233e-13
1.89983e-13
5.84568e-13
3.37458e-13
1.11201e-12
8.52002e-14
1.49959e-12
4.63932e-14
1.01182e-14
2.06637e-14
1.56046e-14
1.89983e-13
8.35097e-14
8.43644e-14
3.57857e-13
2.13e-14
4.50637e-13
2.31966e-14
1.01182e-14
3.3062e-13
4.83744e-13
1.89983e-13
2.5888e-12
1.34983e-12
4.12861e-12
3.40801e-13
4.97629e-12
2.8975e-11
4.63185e-11
1.85573e-13
1.01182e-14
8.2655e-14
1.09233e-13
1.89983e-13
5.84568e-13
3.37458e-13
1.11201e-12
8.52002e-14
1.49959e-12
4.63932e-14
1.01182e-14
2.06637e-14
1.56046e-14
1.89983e-13
8.35097e-14
8.43644e-14
3.57857e-13
2.13e-14
4.50637e-13
2.31966e-14
1.01182e-14
3.3062e-13
4.83744e-13
1.89983e-13
2.5888e-12
1.34983e-12
4.12861e-12
3.40801e-13
4.97629e-12
2.8975e-11
4.63135e-11
1.85573e-13
1.01182e-14
8.2655e-14
1.09233e-13
1.89983e-13
5.84568e-13
3.37458e-13
1.11201e-12
8.52002e-14
1.49959e-12
4.63932e-14
1.01182e-14
2.06637e-14
1.56046e-14
1.89983e-13
8.35097e-14
8.43644e-14
3.57857e-13
2.13e-14
4.50637e-13
2.31966e-14
1.01182e-14
3.3062e-13
4.83744e-13
1.89983e-13
2.5888e-12
1.34983e-12
4.12861e-12
3.40801e-13
4.97629e-12
2.8975e-11
4.62818e-11
1.85573e-13
1.01182e-14
8.2655e-14
1.09233e-13
1.89983e-13
5.84568e-13
3.37458e-13
1.11201e-12
8.52002e-14
1.49959e-12
4.63932e-14
1.01182e-14
2.06637e-14
1.56046e-14
1.89983e-13
8.35097e-14
8.43644e-14
3.57857e-13
2.13e-14
4.50637e-13
2.31966e-14
1.01182e-14
3.3062e-13
4.83744e-13
1.89983e-13
2.5888e-12
1.34983e-12
4.12861e-12
3.40801e-13
4.97629e-12
2.8975e-11
4.62462e-11
1.85573e-13
1.01182e-14
8.2655e-14
1.09233e-13
1.89983e-13
5.84568e-13
3.37458e-13
1.11201e-12
8.52002e-14
1.49959e-12
4.63932e-14
1.01182e-14
2.06637e-14
1.56046e-14
1.89983e-13
8.35097e-14
8.43644e-14
3.57857e-13
2.13e-14
4.50637e-13
2.31966e-14
1.01182e-14
3.3062e-13
4.83744e-13
1.89983e-13
2.5888e-12
1.34983e-12
4.12861e-12
3.40801e-13
4.97629e-12
2.8975e-11
4.62771e-11
1.85573e-13
1.01182e-14
8.2655e-14
1.09233e-13
1.89983e-13
5.84568e-13
3.37458e-13
1.11201e-12
8.52002e-14
1.49959e-12
4.63932e-14
1.01182e-14
2.06637e-14
1.56046e-14
1.89983e-13
8.35097e-14
8.43644e-14
3.57857e-13
2.13e-14
4.50637e-13
2.31966e-14
1.01182e-14
3.3062e-13
4.83744e-13
1.89983e-13
2.5888e-12
1.34983e-12
4.12861e-12
3.40801e-13
4.97629e-12
2.8975e-11
4.6301e-11
1.85573e-13
1.01182e-14
8.2655e-14
1.09233e-13
1.89983e-13
5.84568e-13
3.37458e-13
1.11201e-12
8.52002e-14
1.49959e-12
4.63932e-14
1.01182e-14
2.06637e-14
1.56046e-14
1.89983e-13
8.35097e-14
8.43644e-14
3.57857e-13
2.13e-14
4.50637e-13
2.31966e-14
1.01182e-14
3.3062e-13
4.83744e-13
1.89983e-13
2.5888e-12
1.34983e-12
4.12861e-12
3.40801e-13
4.97629e-12
2.8975e-11
4.62667e-11
1.85573e-13
1.01182e-14
8.2655e-14
1.09233e-13
1.89983e-13
5.84568e-13
3.37458e-13
1.11201e-12
8.52002e-14
1.49959e-12
4.63932e-14
1.01182e-14
2.06637e-14
1.56046e-14
1.89983e-13
8.35097e-14
8.43644e-14
3.57857e-13
2.13e-14
4.50637e-13
2.31966e-14
1.01182e-14
3.3062e-13
4.83744e-13
1.89983e-13
2.5888e-12
1.34983e-12
4.12861e-12
3.40801e-13
4.97629e-12
2.8975e-11
4.62568e-11
1.85573e-13
1.01182e-14
8.2655e-14
1.09233e-13
1.89983e-13
5.84568e-13
3.37458e-13
1.11201e-12
8.52002e-14
1.49959e-12
4.63932e-14
1.01182e-14
2.06637e-14
1.56046e-14
1.89983e-13
8.35097e-14
8.43644e-14
3.57857e-13
2.13e-14
4.50637e-13
2.31966e-14
1.01182e-14
3.3062e-13
4.83744e-13
1.89983e-13
2.5888e-12
1.34983e-12
4.12861e-12
3.40801e-13
4.97629e-12
2.8975e-11
4.62806e-11
1.85573e-13
1.01182e-14
8.2655e-14
1.09233e-13
1.89983e-13
5.84568e-13
3.37458e-13
1.11201e-12
8.52002e-14
1.49959e-12
4.63932e-14
1.01182e-14
2.06637e-14
1.56046e-14
1.89983e-13
8.35097e-14
8.43644e-14
3.57857e-13
2.13e-14
4.50637e-13
2.31966e-14
1.01182e-14
3.3062e-13
4.83744e-13
1.89983e-13
2.5888e-12
1.34983e-12
4.12861e-12
3.40801e-13
4.97629e-12
2.8975e-11
4.62962e-11
1.85573e-13
1.01182e-14
8.2655e-14
1.09233e-13
1.89983e-13
5.84568e-13
3.37458e-13
1.11201e-12
8.52002e-14
1.49959e-12
4.63932e-14
1.01182e-14
2.06637e-14
1.56046e-14
1.89983e-13
8.35097e-14
8.43644e-14
3.57857e-13
2.13e-14
4.50637e-13
2.31966e-14
1.01182e-14
3.3062e-13
4.83744e-13
1.89983e-13
2.5888e-12
1.34983e-12
4.12861e-12
3.40801e-13
4.97629e-12
2.8975e-11
4.62965e-11
1.85573e-13
1.01182e-14
8.2655e-14
1.09233e-13
1.89983e-13
5.84568e-13
3.37458e-13
1.11201e-12
8.52002e-14
1.49959e-12
4.63932e-14
1.01182e-14
2.06637e-14
1.56046e-14
1.89983e-13
8.35097e-14
8.43644e-14
3.57857e-13
2.13e-14
4.50637e-13
2.31966e-14
1.01182e-14
3.3062e-13
4.83744e-13
1.89983e-13
2.5888e-12
1.34983e-12
4.12861e-12
3.40801e-13
4.97629e-12
2.8975e-11
4.63183e-11
1.85573e-13
1.01182e-14
8.2655e-14
1.09233e-13
1.89983e-13
5.84568e-13
3.37458e-13
1.11201e-12
8.52002e-14
1.49959e-12
4.63932e-14
1.01182e-14
2.06637e-14
1.56046e-14
1.89983e-13
8.35097e-14
8.43644e-14
3.57857e-13
2.13e-14
4.50637e-13
2.31966e-14
1.01182e-14
3.3062e-13
4.83744e-13
1.89983e-13
2.5888e-12
1.34983e-12
4.12861e-12
3.40801e-13
4.97629e-12
2.8975e-11
4.62977e-11
1.85573e-13
1.01182e-14
8.2655e-14
1.09233e-13
1.89983e-13
5.84568e-13
3.37458e-13
1.11201e-12
8.52002e-14
1.49959e-12
4.63932e-14
1.01182e-14
2.06637e-14
1.56046e-14
1.89983e-13
8.35097e-14
8.43644e-14
3.57857e-13
2.13e-14
4.50637e-13
2.31966e-14
1.01182e-14
3.3062e-13
4.83744e-13
1.89983e-13
2.5888e-12
1.34983e-12
4.12861e-12
3.40801e-13
4.97629e-12
2.8975e-11
4.63066e-11
1.85573e-13
1.01182e-14
8.2655e-14
1.09233e-13
1.89983e-13
5.84568e-13
3.37458e-13
1.11201e-12
8.52002e-14
1.49959e-12
4.63932e-14
1.01182e-14
2.06637e-14
1.56046e-14
1.89983e-13
8.35097e-14
8.43644e-14
3.57857e-13
2.13e-14
4.50637e-13
2.31966e-14
1.01182e-14
3.3062e-13
4.83744e-13
1.89983e-13
2.5888e-12
1.34983e-12
4.12861e-12
3.40801e-13
4.97629e-12
2.8975e-11
4.63072e-11
1.85573e-13
1.01182e-14
8.2655e-14
1.09233e-13
1.89983e-13
5.84568e-13
3.37458e-13
1.11201e-12
8.52002e-14
1.49959e-12
4.63932e-14
1.01182e-14
2.06637e-14
1.56046e-14
1.89983e-13
8.35097e-14
8.43644e-14
3.57857e-13
2.13e-14
4.50637e-13
2.31966e-14
1.01182e-14
3.3062e-13
4.83744e-13
1.89983e-13
2.5888e-12
1.34983e-12
4.12861e-12
3.40801e-13
4.97629e-12
3.01535e-11
5.08256e-11
1.85573e-13
1.01182e-14
8.2655e-14
1.09233e-13
1.89983e-13
5.84568e-13
3.37458e-13
1.11201e-12
8.52002e-14
1.49959e-12
4.63932e-14
1.01182e-14
2.06637e-14
1.56046e-14
1.89983e-13
8.35097e-14
8.43644e-14
3.57857e-13
2.13e-14
4.50637e-13
2.31966e-14
1.01182e-14
3.3062e-13
4.83744e-13
1.89983e-13
2.5888e-12
1.34983e-12
4.12861e-12
3.40801e-13
4.97629e-12
3.01535e-11
4.82804e-11
1.85573e-13
1.01182e-14
8.2655e-14
1.09233e-13
1.89983e-13
5.84568e-13
3.37458e-13
1.11201e-12
8.52002e-14
1.49959e-12
4.63932e-14
1.01182e-14
2.06637e-14
1.56046e-14
1.89983e-13
8.35097e-14
8.43644e-14
3.57857e-13
2.13e-14
4.50637e-13
2.31966e-14
1.01182e-14
3.3062e-13
4.83744e-13
1.89983e-13
2.5888e-12
1.34983e-12
4.12861e-12
3.40801e-13
4.97629e-12
3.01535e-11
4.82823e-11
1.85573e-13
1.01182e-14
8.2655e-14
1.09233e-13
1.89983e-13
5.84568e-13
3.37458e-13
1.11201e-12
8.52002e-14
1.49959e-12
4.63932e-14
1.01182e-14
2.06637e-14
1.56046e-14
1.89983e-13
8.35097e-14
8.43644e-14
3.57857e-13
2.13e-14
4.50637e-13
2.31966e-14
1.01182e-14
3.3062e-13
4.83744e-13
1.89983e-13
2.5888e-12
1.34983e-12
4.12861e-12
3.40801e-13
4.97629e-12
3.01535e-11
4.82879e-11
1.85573e-13
1.01182e-14
8.2655e-14
1.09233e-13
1.89983e-13
5.84568e-13
3.37458e-13
1.11201e-12
8.52002e-14
1.49959e-12
4.63932e-14
1.01182e-14
2.06637e-14
1.56046e-14
1.89983e-13
8.35097e-14
8.43644e-14
3.57857e-13
2.13e-14
4.50637e-13
2.31966e-14
1.01182e-14
3.3062e-13
4.83744e-13
1.89983e-13
2.5888e-12
1.34983e-12
4.12861e-12
3.40801e-13
4.97629e-12
3.01535e-11
4.82794e-11
1.85573e-13
1.01182e-14
8.2655e-14
1.09233e-13
1.89983e-13
5.84568e-13
3.37458e-13
1.11201e-12
8.52002e-14
1.49959e-12
4.63932e-14
1.01182e-14
2.06637e-14
1.56046e-14
1.89983e-13
8.35097e-14
8.43644e-14
3.57857e-13
2.13e-14
4.50637e-13
2.31966e-14
1.01182e-14
3.3062e-13
4.83744e-13
1.89983e-13
2.5888e-12
1.34983e-12
4.12861e-12
3.40801e-13
4.97629e-12
3.01535e-11
4.82756e-11
1.85573e-13
1.01182e-14
8.2655e-14
1.09233e-13
1.89983e-13
5.84568e-13
3.37458e-13
1.11201e-12
8.52002e-14
1.49959e-12
4.63932e-14
1.01182e-14
2.06637e-14
1.56046e-14
1.89983e-13
8.35097e-14
8.43644e-14
3.57857e-13
2.13e-14
4.50637e-13
2.31966e-14
1.01182e-14
3.3062e-13
4.83744e-13
1.89983e-13
2.5888e-12
1.34983e-12
4.12861e-12
3.40801e-13
4.97629e-12
3.01535e-11
4.82702e-11
1.85573e-13
1.01182e-14
8.2655e-14
1.09233e-13
1.89983e-13
5.84568e-13
3.37458e-13
1.11201e-12
8.52002e-14
1.49959e-12
4.63932e-14
1.01182e-14
2.06637e-14
1.56046e-14
1.89983e-13
8.35097e-14
8.43644e-14
3.57857e-13
2.13e-14
4.50637e-13
2.31966e-14
1.01182e-14
3.3062e-13
4.83744e-13
1.89983e-13
2.5888e-12
1.34983e-12
4.12861e-12
3.40801e-13
4.97629e-12
3.01535e-11
5.07748e-11
1.85573e-13
1.01182e-14
8.2655e-14
1.09233e-13
1.89983e-13
5.84568e-13
3.37458e-13
1.11201e-12
8.52002e-14
1.49959e-12
4.63932e-14
1.01182e-14
2.06637e-14
1.56046e-14
1.89983e-13
8.35097e-14
8.43644e-14
3.57857e-13
2.13e-14
4.50637e-13
2.31966e-14
1.01182e-14
3.3062e-13
4.83744e-13
1.89983e-13
2.5888e-12
1.34983e-12
4.12861e-12
3.40801e-13
4.97629e-12
3.01535e-11
4.82465e-11
1.85573e-13
1.01182e-14
8.2655e-14
1.09233e-13
1.89983e-13
5.84568e-13
3.37458e-13
1.11201e-12
8.52002e-14
1.49959e-12
4.63932e-14
1.01182e-14
2.06637e-14
1.56046e-14
1.89983e-13
8.35097e-14
8.43644e-14
3.57857e-13
2.13e-14
4.50637e-13
2.31966e-14
1.01182e-14
3.3062e-13
4.83744e-13
1.89983e-13
2.5888e-12
1.34983e-12
4.12861e-12
3.40801e-13
4.97629e-12
3.01535e-11
4.82463e-11
1.85573e-13
1.01182e-14
8.2655e-14
1.09233e-13
1.89983e-13
5.84568e-13
3.37458e-13
1.11201e-12
8.52002e-14
1.49959e-12
4.63932e-14
1.01182e-14
2.06637e-14
1.56046e-14
1.89983e-13
8.35097e-14
8.43644e-14
3.57857e-13
2.13e-14
4.50637e-13
2.31966e-14
1.01182e-14
3.3062e-13
4.83744e-13
1.89983e-13
2.5888e-12
1.34983e-12
4.12861e-12
3.40801e-13
4.97629e-12
3.01535e-11
5.06142e-11
1.85573e-13
1.01182e-14
8.2655e-14
1.09233e-13
1.89983e-13
5.84568e-13
3.37458e-13
1.11201e-12
8.52002e-14
1.49959e-12
4.63932e-14
1.01182e-14
2.06637e-14
1.56046e-14
1.89983e-13
8.35097e-14
8.43644e-14
3.57857e-13
2.13e-14
4.50637e-13
2.31966e-14
1.01182e-14
3.3062e-13
4.83744e-13
1.89983e-13
2.5888e-12
1.34983e-12
4.12861e-12
3.40801e-13
4.97629e-12
3.01535e-11
4.82733e-11
1.85573e-13
1.01182e-14
8.2655e-14
1.09233e-13
1.89983e-13
5.84568e-13
3.37458e-13
1.11201e-12
8.52002e-14
1.49959e-12
4.63932e-14
1.01182e-14
2.06637e-14
1.56046e-14
1.89983e-13
8.35097e-14
8.43644e-14
3.57857e-13
2.13e-14
4.50637e-13
2.31966e-14
1.01182e-14
3.3062e-13
4.83744e-13
1.89983e-13
2.5888e-12
1.34983e-12
4.12861e-12
3.40801e-13
4.97629e-12
3.01535e-11
4.8283e-11
1.85573e-13
1.01182e-14
8.2655e-14
1.09233e-13
1.89983e-13
5.84568e-13
3.37458e-13
1.11201e-12
8.52002e-14
1.49959e-12
4.63932e-14
1.01182e-14
2.06637e-14
1.56046e-14
1.89983e-13
8.35097e-14
8.43644e-14
3.57857e-13
2.13e-14
4.50637e-13
2.31966e-14
1.01182e-14
3.3062e-13
4.83744e-13
1.89983e-13
2.5888e-12
1.34983e-12
4.12861e-12
3.40801e-13
4.97629e-12
3.01535e-11
4.8299e-11
1.85573e-13
1.01182e-14
8.2655e-14
1.09233e-13
1.89983e-13
5.84568e-13
3.37458e-13
1.11201e-12
8.52002e-14
1.49959e-12
4.63932e-14
1.01182e-14
2.06637e-14
1.56046e-14
1.89983e-13
8.35097e-14
8.43644e-14
3.57857e-13
2.13e-14
4.50637e-13
2.31966e-14
1.01182e-14
3.3062e-13
4.83744e-13
1.89983e-13
2.5888e-12
1.34983e-12
4.12861e-12
3.40801e-13
4.97629e-12
3.01535e-11
4.82906e-11
1.85573e-13
1.01182e-14
8.2655e-14
1.09233e-13
1.89983e-13
5.84568e-13
3.37458e-13
1.11201e-12
8.52002e-14
1.49959e-12
4.63932e-14
1.01182e-14
2.06637e-14
1.56046e-14
1.89983e-13
8.35097e-14
8.43644e-14
3.57857e-13
2.13e-14
4.50637e-13
2.31966e-14
1.01182e-14
3.3062e-13
4.83744e-13
1.89983e-13
2.5888e-12
1.34983e-12
4.12861e-12
3.40801e-13
4.97629e-12
3.01535e-11
4.82714e-11
1.85573e-13
1.01182e-14
8.2655e-14
1.09233e-13
1.89983e-13
5.84568e-13
3.37458e-13
1.11201e-12
8.52002e-14
1.49959e-12
4.63932e-14
1.01182e-14
2.06637e-14
1.56046e-14
1.89983e-13
8.35097e-14
8.43644e-14
3.57857e-13
2.13e-14
4.50637e-13
2.31966e-14
1.01182e-14
3.3062e-13
4.83744e-13
1.89983e-13
2.5888e-12
1.34983e-12
4.12861e-12
3.40801e-13
4.97629e-12
3.1332e-11
5.17131e-11
1.85573e-13
1.01182e-14
8.2655e-14
1.09233e-13
1.89983e-13
5.84568e-13
3.37458e-13
1.11201e-12
8.52002e-14
1.49959e-12
4.63932e-14
1.01182e-14
2.06637e-14
1.56046e-14
1.89983e-13
8.35097e-14
8.43644e-14
3.57857e-13
2.13e-14
4.50637e-13
2.31966e-14
1.01182e-14
3.3062e-13
4.83744e-13
1.89983e-13
2.5888e-12
1.34983e-12
4.12861e-12
3.40801e-13
4.97629e-12
3.1332e-11
5.22548e-11
1.85573e-13
1.01182e-14
8.2655e-14
1.09233e-13
1.89983e-13
5.84568e-13
3.37458e-13
1.11201e-12
8.52002e-14
1.49959e-12
4.63932e-14
1.01182e-14
2.06637e-14
1.56046e-14
1.89983e-13
8.35097e-14
8.43644e-14
3.57857e-13
2.13e-14
4.50637e-13
2.31966e-14
1.01182e-14
3.3062e-13
4.83744e-13
1.89983e-13
2.5888e-12
1.34983e-12
4.12861e-12
3.40801e-13
4.97629e-12
3.1332e-11
5.22697e-11
1.85573e-13
1.01182e-14
8.2655e-14
1.09233e-13
1.89983e-13
5.84568e-13
3.37458e-13
1.11201e-12
8.52002e-14
1.49959e-12
4.63932e-14
1.01182e-14
2.06637e-14
1.56046e-14
1.89983e-13
8.35097e-14
8.43644e-14
3.57857e-13
2.13e-14
4.50637e-13
2.31966e-14
1.01182e-14
3.3062e-13
4.83744e-13
1.89983e-13
2.5888e-12
1.34983e-12
4.12861e-12
3.40801e-13
4.97629e-12
3.1332e-11
5.20946e-11
1.85573e-13
1.01182e-14
8.2655e-14
1.09233e-13
1.89983e-13
5.84568e-13
3.37458e-13
1.11201e-12
8.52002e-14
1.49959e-12
4.63932e-14
1.01182e-14
2.06637e-14
1.56046e-14
1.89983e-13
8.35097e-14
8.43644e-14
3.57857e-13
2.13e-14
4.50637e-13
2.31966e-14
1.01182e-14
3.3062e-13
4.83744e-13
1.89983e-13
2.5888e-12
1.34983e-12
4.12861e-12
3.40801e-13
4.97629e-12
3.1332e-11
5.23134e-11
1.85573e-13
1.01182e-14
8.2655e-14
1.09233e-13
1.89983e-13
5.84568e-13
3.37458e-13
1.11201e-12
8.52002e-14
1.49959e-12
4.63932e-14
1.01182e-14
2.06637e-14
1.56046e-14
1.89983e-13
8.35097e-14
8.43644e-14
3.57857e-13
2.13e-14
4.50637e-13
2.31966e-14
1.01182e-14
3.3062e-13
4.83744e-13
1.89983e-13
2.5888e-12
1.34983e-12
4.12861e-12
3.40801e-13
4.97629e-12
3.1332e-11
5.22877e-11
1.85573e-13
1.01182e-14
8.2655e-14
1.09233e-13
1.89983e-13
5.84568e-13
3.37458e-13
1.11201e-12
8.52002e-14
1.49959e-12
4.63932e-14
1.01182e-14
2.06637e-14
1.56046e-14
1.89983e-13
8.35097e-14
8.43644e-14
3.57857e-13
2.13e-14
4.50637e-13
2.31966e-14
1.01182e-14
3.3062e-13
4.83744e-13
1.89983e-13
2.5888e-12
1.34983e-12
4.12861e-12
3.40801e-13
4.97629e-12
3.1332e-11
5.23633e-11
1.85573e-13
1.01182e-14
8.2655e-14
1.09233e-13
1.89983e-13
5.84568e-13
3.37458e-13
1.11201e-12
8.52002e-14
1.49959e-12
4.63932e-14
1.01182e-14
2.06637e-14
1.56046e-14
1.89983e-13
8.35097e-14
8.43644e-14
3.57857e-13
2.13e-14
4.50637e-13
2.31966e-14
1.01182e-14
3.3062e-13
4.83744e-13
1.89983e-13
2.5888e-12
1.34983e-12
4.12861e-12
3.40801e-13
4.97629e-12
3.1332e-11
5.18198e-11
1.85573e-13
1.01182e-14
8.2655e-14
1.09233e-13
1.89983e-13
5.84568e-13
3.37458e-13
1.11201e-12
8.52002e-14
1.49959e-12
4.63932e-14
1.01182e-14
2.06637e-14
1.56046e-14
1.89983e-13
8.35097e-14
8.43644e-14
3.57857e-13
2.13e-14
4.50637e-13
2.31966e-14
1.01182e-14
3.3062e-13
4.83744e-13
1.89983e-13
2.5888e-12
1.34983e-12
4.12861e-12
3.40801e-13
4.97629e-12
3.1332e-11
5.23023e-11
1.85573e-13
1.01182e-14
8.2655e-14
1.09233e-13
1.89983e-13
5.84568e-13
3.37458e-13
1.11201e-12
8.52002e-14
1.49959e-12
4.63932e-14
1.01182e-14
2.06637e-14
1.56046e-14
1.89983e-13
8.35097e-14
8.43644e-14
3.57857e-13
2.13e-14
4.50637e-13
2.31966e-14
1.01182e-14
3.3062e-13
4.83744e-13
1.89983e-13
2.5888e-12
1.34983e-12
4.12861e-12
3.40801e-13
4.97629e-12
3.1332e-11
5.2458e-11
1.85573e-13
1.01182e-14
8.2655e-14
1.09233e-13
1.89983e-13
5.84568e-13
3.37458e-13
1.11201e-12
8.52002e-14
1.49959e-12
4.63932e-14
1.01182e-14
2.06637e-14
1.56046e-14
1.89983e-13
8.35097e-14
8.43644e-14
3.57857e-13
2.13e-14
4.50637e-13
2.31966e-14
1.01182e-14
3.3062e-13
4.83744e-13
1.89983e-13
2.5888e-12
1.34983e-12
4.12861e-12
3.40801e-13
4.97629e-12
3.1332e-11
5.17148e-11
1.85573e-13
1.01182e-14
8.2655e-14
1.09233e-13
1.89983e-13
5.84568e-13
3.37458e-13
1.11201e-12
8.52002e-14
1.49959e-12
4.63932e-14
1.01182e-14
2.06637e-14
1.56046e-14
1.89983e-13
8.35097e-14
8.43644e-14
3.57857e-13
2.13e-14
4.50637e-13
2.31966e-14
1.01182e-14
3.3062e-13
4.83744e-13
1.89983e-13
2.5888e-12
1.34983e-12
4.12861e-12
3.40801e-13
4.97629e-12
3.1332e-11
5.25099e-11
1.85573e-13
1.01182e-14
8.2655e-14
1.09233e-13
1.89983e-13
5.84568e-13
3.37458e-13
1.11201e-12
8.52002e-14
1.49959e-12
4.63932e-14
1.01182e-14
2.06637e-14
1.56046e-14
1.89983e-13
8.35097e-14
8.43644e-14
3.57857e-13
2.13e-14
4.50637e-13
2.31966e-14
1.01182e-14
3.3062e-13
4.83744e-13
1.89983e-13
2.5888e-12
1.34983e-12
4.12861e-12
3.40801e-13
4.97629e-12
3.1332e-11
5.15705e-11
1.85573e-13
1.01182e-14
8.2655e-14
1.09233e-13
1.89983e-13
5.84568e-13
3.37458e-13
1.11201e-12
8.52002e-14
1.49959e-12
4.63932e-14
1.01182e-14
2.06637e-14
1.56046e-14
1.89983e-13
8.35097e-14
8.43644e-14
3.57857e-13
2.13e-14
4.50637e-13
2.31966e-14
1.01182e-14
3.3062e-13
4.83744e-13
1.89983e-13
2.5888e-12
1.34983e-12
4.12861e-12
3.40801e-13
4.97629e-12
3.1332e-11
5.19346e-11
1.85573e-13
1.01182e-14
8.2655e-14
1.09233e-13
1.89983e-13
5.84568e-13
3.37458e-13
1.11201e-12
8.52002e-14
1.49959e-12
4.63932e-14
1.01182e-14
2.06637e-14
1.56046e-14
1.89983e-13
8.35097e-14
8.43644e-14
3.57857e-13
2.13e-14
4.50637e-13
2.31966e-14
1.01182e-14
3.3062e-13
4.83744e-13
1.89983e-13
2.5888e-12
1.34983e-12
4.12861e-12
3.40801e-13
4.97629e-12
3.1332e-11
5.21612e-11
1.85573e-13
1.01182e-14
8.2655e-14
1.09233e-13
1.89983e-13
5.84568e-13
3.37458e-13
1.11201e-12
8.52002e-14
1.49959e-12
4.63932e-14
1.01182e-14
2.06637e-14
1.56046e-14
1.89983e-13
8.35097e-14
8.43644e-14
3.57857e-13
2.13e-14
4.50637e-13
2.31966e-14
1.01182e-14
3.3062e-13
4.83744e-13
1.89983e-13
2.5888e-12
1.34983e-12
4.12861e-12
3.40801e-13
4.97629e-12
3.1332e-11
5.19366e-11
1.85573e-13
1.01182e-14
8.2655e-14
1.09233e-13
1.89983e-13
5.84568e-13
3.37458e-13
1.11201e-12
8.52002e-14
1.49959e-12
4.63932e-14
1.01182e-14
2.06637e-14
1.56046e-14
1.89983e-13
8.35097e-14
8.43644e-14
3.57857e-13
2.13e-14
4.50637e-13
2.31966e-14
1.01182e-14
3.3062e-13
4.83744e-13
1.89983e-13
2.5888e-12
1.34983e-12
4.12861e-12
3.40801e-13
4.97629e-12
3.25105e-11
5.3237e-11
1.85573e-13
1.01182e-14
8.2655e-14
1.09233e-13
1.89983e-13
5.84568e-13
3.37458e-13
1.11201e-12
8.52002e-14
1.49959e-12
4.63932e-14
1.01182e-14
2.06637e-14
1.56046e-14
1.89983e-13
8.35097e-14
8.43644e-14
3.57857e-13
2.13e-14
4.50637e-13
2.31966e-14
1.01182e-14
3.3062e-13
4.83744e-13
1.89983e-13
2.5888e-12
1.34983e-12
4.12861e-12
3.40801e-13
4.97629e-12
3.25105e-11
5.1506e-11
1.85573e-13
1.01182e-14
8.2655e-14
1.09233e-13
1.89983e-13
5.84568e-13
3.37458e-13
1.11201e-12
8.52002e-14
1.49959e-12
4.63932e-14
1.01182e-14
2.06637e-14
1.56046e-14
1.89983e-13
8.35097e-14
8.43644e-14
3.57857e-13
2.13e-14
4.50637e-13
2.31966e-14
1.01182e-14
3.3062e-13
4.83744e-13
1.89983e-13
2.5888e-12
1.34983e-12
4.12861e-12
3.40801e-13
4.97629e-12
3.25105e-11
5.23696e-11
1.85573e-13
1.01182e-14
8.2655e-14
1.09233e-13
1.89983e-13
5.84568e-13
3.37458e-13
1.11201e-12
8.52002e-14
1.49959e-12
4.63932e-14
1.01182e-14
2.06637e-14
1.56046e-14
1.89983e-13
8.35097e-14
8.43644e-14
3.57857e-13
2.13e-14
4.50637e-13
2.31966e-14
1.01182e-14
3.3062e-13
4.83744e-13
1.89983e-13
2.5888e-12
1.34983e-12
4.12861e-12
3.40801e-13
4.97629e-12
3.25105e-11
5.20527e-11
1.85573e-13
1.01182e-14
8.2655e-14
1.09233e-13
1.89983e-13
5.84568e-13
3.37458e-13
1.11201e-12
8.52002e-14
1.49959e-12
4.63932e-14
1.01182e-14
2.06637e-14
1.56046e-14
1.89983e-13
8.35097e-14
8.43644e-14
3.57857e-13
2.13e-14
4.50637e-13
2.31966e-14
1.01182e-14
3.3062e-13
4.83744e-13
1.89983e-13
2.5888e-12
1.34983e-12
4.12861e-12
3.40801e-13
4.97629e-12
3.25105e-11
5.27676e-11
1.85573e-13
1.01182e-14
8.2655e-14
1.09233e-13
1.89983e-13
5.84568e-13
3.37458e-13
1.11201e-12
8.52002e-14
1.49959e-12
4.63932e-14
1.01182e-14
2.06637e-14
1.56046e-14
1.89983e-13
8.35097e-14
8.43644e-14
3.57857e-13
2.13e-14
4.50637e-13
2.31966e-14
1.01182e-14
3.3062e-13
4.83744e-13
1.89983e-13
2.5888e-12
1.34983e-12
4.12861e-12
3.40801e-13
4.97629e-12
3.25105e-11
5.30137e-11
1.85573e-13
1.01182e-14
8.2655e-14
1.09233e-13
1.89983e-13
5.84568e-13
3.37458e-13
1.11201e-12
8.52002e-14
1.49959e-12
4.63932e-14
1.01182e-14
2.06637e-14
1.56046e-14
1.89983e-13
8.35097e-14
8.43644e-14
3.57857e-13
2.13e-14
4.50637e-13
2.31966e-14
1.01182e-14
3.3062e-13
4.83744e-13
1.89983e-13
2.5888e-12
1.34983e-12
4.12861e-12
3.40801e-13
4.97629e-12
3.25105e-11
5.26134e-11
1.85573e-13
1.01182e-14
8.2655e-14
1.09233e-13
1.89983e-13
5.84568e-13
3.37458e-13
1.11201e-12
8.52002e-14
1.49959e-12
4.63932e-14
1.01182e-14
2.06637e-14
1.56046e-14
1.89983e-13
8.35097e-14
8.43644e-14
3.57857e-13
2.13e-14
4.50637e-13
2.31966e-14
1.01182e-14
3.3062e-13
4.83744e-13
1.89983e-13
2.5888e-12
1.34983e-12
4.12861e-12
3.40801e-13
4.97629e-12
3.25105e-11
5.22743e-11
1.85573e-13
1.01182e-14
8.2655e-14
1.09233e-13
1.89983e-13
5.84568e-13
3.37458e-13
1.11201e-12
8.52002e-14
1.49959e-12
4.63932e-14
1.01182e-14
2.06637e-14
1.56046e-14
1.89983e-13
8.35097e-14
8.43644e-14
3.57857e-13
2.13e-14
4.50637e-13
2.31966e-14
1.01182e-14
3.3062e-13
4.83744e-13
1.89983e-13
2.5888e-12
1.34983e-12
4.12861e-12
3.40801e-13
4.97629e-12
3.25105e-11
5.21914e-11
1.85573e-13
1.01182e-14
8.2655e-14
1.09233e-13
1.89983e-13
5.84568e-13
3.37458e-13
1.11201e-12
8.52002e-14
1.49959e-12
4.63932e-14
1.01182e-14
2.06637e-14
1.56046e-14
1.89983e-13
8.35097e-14
8.43644e-14
3.57857e-13
2.13e-14
4.50637e-13
2.31966e-14
1.01182e-14
3.3062e-13
4.83744e-13
1.89983e-13
2.5888e-12
1.34983e-12
4.12861e-12
3.40801e-13
4.97629e-12
3.25105e-11
5.05512e-11
1.85573e-13
1.01182e-14
8.2655e-14
1.09233e-13
1.89983e-13
5.84568e-13
3.37458e-13
1.11201e-12
8.52002e-14
1.49959e-12
4.63932e-14
1.01182e-14
2.06637e-14
1.56046e-14
1.89983e-13
8.35097e-14
8.43644e-14
3.57857e-13
2.13e-14
4.50637e-13
2.31966e-14
1.01182e-14
3.3062e-13
4.83744e-13
1.89983e-13
2.5888e-12
1.34983e-12
4.12861e-12
3.40801e-13
4.97629e-12
3.25105e-11
5.15195e-11
1.85573e-13
1.01182e-14
8.2655e-14
1.09233e-13
1.89983e-13
5.84568e-13
3.37458e-13
1.11201e-12
8.52002e-14
1.49959e-12
4.63932e-14
1.01182e-14
2.06637e-14
1.56046e-14
1.89983e-13
8.35097e-14
8.43644e-14
3.57857e-13
2.13e-14
4.50637e-13
2.31966e-14
1.01182e-14
3.3062e-13
4.83744e-13
1.89983e-13
2.5888e-12
1.34983e-12
4.12861e-12
3.40801e-13
4.97629e-12
3.25105e-11
4.93101e-11
1.85573e-13
1.01182e-14
8.2655e-14
1.09233e-13
1.89983e-13
5.84568e-13
3.37458e-13
1.11201e-12
8.52002e-14
1.49959e-12
4.63932e-14
1.01182e-14
2.06637e-14
1.56046e-14
1.89983e-13
8.35097e-14
8.43644e-14
3.57857e-13
2.13e-14
4.50637e-13
2.31966e-14
1.01182e-14
3.3062e-13
4.83744e-13
1.89983e-13
2.5888e-12
1.34983e-12
4.12861e-12
3.40801e-13
4.97629e-12
3.25105e-11
5.32338e-11
1.85573e-13
1.01182e-14
8.2655e-14
1.09233e-13
1.89983e-13
5.84568e-13
3.37458e-13
1.11201e-12
8.52002e-14
1.49959e-12
4.63932e-14
1.01182e-14
2.06637e-14
1.56046e-14
1.89983e-13
8.35097e-14
8.43644e-14
3.57857e-13
2.13e-14
4.50637e-13
2.31966e-14
1.01182e-14
3.3062e-13
4.83744e-13
1.89983e-13
2.5888e-12
1.34983e-12
4.12861e-12
3.40801e-13
4.97629e-12
3.25105e-11
5.29462e-11
1.85573e-13
1.01182e-14
8.2655e-14
1.09233e-13
1.89983e-13
5.84568e-13
3.37458e-13
1.11201e-12
8.52002e-14
1.49959e-12
4.63932e-14
1.01182e-14
2.06637e-14
1.56046e-14
1.89983e-13
8.35097e-14
8.43644e-14
3.57857e-13
2.13e-14
4.50637e-13
2.31966e-14
1.01182e-14
3.3062e-13
4.83744e-13
1.89983e-13
2.5888e-12
1.34983e-12
4.12861e-12
3.40801e-13
4.97629e-12
3.25105e-11
5.15041e-11
1.85573e-13
1.01182e-14
8.2655e-14
1.09233e-13
1.89983e-13
5.84568e-13
3.37458e-13
1.11201e-12
8.52002e-14
1.49959e-12
4.63932e-14
1.01182e-14
2.06637e-14
1.56046e-14
1.89983e-13
8.35097e-14
8.43644e-14
3.57857e-13
2.13e-14
4.50637e-13
2.31966e-14
1.01182e-14
3.3062e-13
4.83744e-13
1.89983e-13
2.5888e-12
1.34983e-12
4.12861e-12
3.40801e-13
4.97629e-12
3.25105e-11
5.12712e-11
1.85573e-13
1.01182e-14
8.2655e-14
1.09233e-13
1.89983e-13
5.84568e-13
3.37458e-13
1.11201e-12
8.52002e-14
1.49959e-12
4.63932e-14
1.01182e-14
2.06637e-14
1.56046e-14
1.89983e-13
8.35097e-14
8.43644e-14
3.57857e-13
2.13e-14
4.50637e-13
2.31966e-14
1.01182e-14
3.3062e-13
4.83744e-13
1.89983e-13
2.5888e-12
1.34983e-12
4.12861e-12
3.40801e-13
4.97629e-12
3.3689e-11
5.08076e-11
1.85573e-13
1.01182e-14
8.2655e-14
1.09233e-13
1.89983e-13
5.84568e-13
3.37458e-13
1.11201e-12
8.52002e-14
1.49959e-12
4.63932e-14
1.01182e-14
2.06637e-14
1.56046e-14
1.89983e-13
8.35097e-14
8.43644e-14
3.57857e-13
2.13e-14
4.50637e-13
2.31966e-14
1.01182e-14
3.3062e-13
4.83744e-13
1.89983e-13
2.5888e-12
1.34983e-12
4.12861e-12
3.40801e-13
4.97629e-12
3.3689e-11
5.28547e-11
1.85573e-13
1.01182e-14
8.2655e-14
1.09233e-13
1.89983e-13
5.84568e-13
3.37458e-13
1.11201e-12
8.52002e-14
1.49959e-12
4.63932e-14
1.01182e-14
2.06637e-14
1.56046e-14
1.89983e-13
8.35097e-14
8.43644e-14
3.57857e-13
2.13e-14
4.50637e-13
2.31966e-14
1.01182e-14
3.3062e-13
4.83744e-13
1.89983e-13
2.5888e-12
1.34983e-12
4.12861e-12
3.40801e-13
4.97629e-12
3.3689e-11
5.15583e-11
1.85573e-13
1.01182e-14
8.2655e-14
1.09233e-13
1.89983e-13
5.84568e-13
3.37458e-13
1.11201e-12
8.52002e-14
1.49959e-12
4.63932e-14
1.01182e-14
2.06637e-14
1.56046e-14
1.89983e-13
8.35097e-14
8.43644e-14
3.57857e-13
2.13e-14
4.50637e-13
2.31966e-14
1.01182e-14
3.3062e-13
4.83744e-13
1.89983e-13
2.5888e-12
1.34983e-12
4.12861e-12
3.40801e-13
4.97629e-12
3.3689e-11
5.06329e-11
1.85573e-13
1.01182e-14
8.2655e-14
1.09233e-13
1.89983e-13
5.84568e-13
3.37458e-13
1.11201e-12
8.52002e-14
1.49959e-12
4.63932e-14
1.01182e-14
2.06637e-14
1.56046e-14
1.89983e-13
8.35097e-14
8.43644e-14
3.57857e-13
2.13e-14
4.50637e-13
2.31966e-14
1.01182e-14
3.3062e-13
4.83744e-13
1.89983e-13
2.5888e-12
1.34983e-12
4.12861e-12
3.40801e-13
4.97629e-12
3.3689e-11
5.03942e-11
1.85573e-13
1.01182e-14
8.2655e-14
1.09233e-13
1.89983e-13
5.84568e-13
3.37458e-13
1.11201e-12
8.52002e-14
1.49959e-12
4.63932e-14
1.01182e-14
2.06637e-14
1.56046e-14
1.89983e-13
8.35097e-14
8.43644e-14
3.57857e-13
2.13e-14
4.50637e-13
2.31966e-14
1.01182e-14
3.3062e-13
4.83744e-13
1.89983e-13
2.5888e-12
1.34983e-12
4.12861e-12
3.40801e-13
4.97629e-12
3.3689e-11
5.38607e-11
1.85573e-13
1.01182e-14
8.2655e-14
1.09233e-13
1.89983e-13
5.84568e-13
3.37458e-13
1.11201e-12
8.52002e-14
1.49959e-12
4.63932e-14
1.01182e-14
2.06637e-14
1.56046e-14
1.89983e-13
8.35097e-14
8.43644e-14
3.57857e-13
2.13e-14
4.50637e-13
2.31966e-14
1.01182e-14
3.3062e-13
4.83744e-13
1.89983e-13
2.5888e-12
1.34983e-12
4.12861e-12
3.40801e-13
4.97629e-12
3.3689e-11
5.03158e-11
1.85573e-13
1.01182e-14
8.2655e-14
1.09233e-13
1.89983e-13
5.84568e-13
3.37458e-13
1.11201e-12
8.52002e-14
1.49959e-12
4.63932e-14
1.01182e-14
2.06637e-14
1.56046e-14
1.89983e-13
8.35097e-14
8.43644e-14
3.57857e-13
2.13e-14
4.50637e-13
2.31966e-14
1.01182e-14
3.3062e-13
4.83744e-13
1.89983e-13
2.5888e-12
1.34983e-12
4.12861e-12
3.40801e-13
4.97629e-12
3.3689e-11
4.97657e-11
1.85573e-13
1.01182e-14
8.2655e-14
1.09233e-13
1.89983e-13
5.84568e-13
3.37458e-13
1.11201e-12
8.52002e-14
1.49959e-12
4.63932e-14
1.01182e-14
2.06637e-14
1.56046e-14
1.89983e-13
8.35097e-14
8.43644e-14
3.57857e-13
2.13e-14
4.50637e-13
2.31966e-14
1.01182e-14
3.3062e-13
4.83744e-13
1.89983e-13
2.5888e-12
1.34983e-12
4.12861e-12
3.40801e-13
4.97629e-12
3.3689e-11
5.08763e-11
1.85573e-13
1.01182e-14
8.2655e-14
1.09233e-13
1.89983e-13
5.84568e-13
3.37458e-13
1.11201e-12
8.52002e-14
1.49959e-12
4.63932e-14
1.01182e-14
2.06637e-14
1.56046e-14
1.89983e-13
8.35097e-14
8.43644e-14
3.57857e-13
2.13e-14
4.50637e-13
2.31966e-14
1.01182e-14
3.3062e-13
4.83744e-13
1.89983e-13
2.5888e-12
1.34983e-12
4.12861e-12
3.40801e-13
4.97629e-12
3.3689e-11
5.13661e-11
1.85573e-13
1.01182e-14
8.2655e-14
1.09233e-13
1.89983e-13
5.84568e-13
3.37458e-13
1.11201e-12
8.52002e-14
1.49959e-12
4.63932e-14
1.01182e-14
2.06637e-14
1.56046e-14
1.89983e-13
8.35097e-14
8.43644e-14
3.57857e-13
2.13e-14
4.50637e-13
2.31966e-14
1.01182e-14
3.3062e-13
4.83744e-13
1.89983e-13
2.5888e-12
1.34983e-12
4.12861e-12
3.40801e-13
4.97629e-12
3.3689e-11
5.13902e-11
1.85573e-13
1.01182e-14
8.2655e-14
1.09233e-13
1.89983e-13
5.84568e-13
3.37458e-13
1.11201e-12
8.52002e-14
1.49959e-12
4.63932e-14
1.01182e-14
2.06637e-14
1.56046e-14
1.89983e-13
8.35097e-14
8.43644e-14
3.57857e-13
2.13e-14
4.50637e-13
2.31966e-14
1.01182e-14
3.3062e-13
4.83744e-13
1.89983e-13
2.5888e-12
1.34983e-12
4.12861e-12
3.40801e-13
4.97629e-12
3.3689e-11
4.99472e-11
1.85573e-13
1.01182e-14
8.2655e-14
1.09233e-13
1.89983e-13
5.84568e-13
3.37458e-13
1.11201e-12
8.52002e-14
1.49959e-12
4.63932e-14
1.01182e-14
2.06637e-14
1.56046e-14
1.89983e-13
8.35097e-14
8.43644e-14
3.57857e-13
2.13e-14
4.50637e-13
2.31966e-14
1.01182e-14
3.3062e-13
4.83744e-13
1.89983e-13
2.5888e-12
1.34983e-12
4.12861e-12
3.40801e-13
4.97629e-12
3.3689e-11
5.09288e-11
1.85573e-13
1.01182e-14
8.2655e-14
1.09233e-13
1.89983e-13
5.84568e-13
3.37458e-13
1.11201e-12
8.52002e-14
1.49959e-12
4.63932e-14
1.01182e-14
2.06637e-14
1.56046e-14
1.89983e-13
8.35097e-14
8.43644e-14
3.57857e-13
2.13e-14
4.50637e-13
2.31966e-14
1.01182e-14
3.3062e-13
4.83744e-13
1.89983e-13
2.5888e-12
1.34983e-12
4.12861e-12
3.40801e-13
4.97629e-12
3.3689e-11
5.21664e-11
1.85573e-13
1.01182e-14
8.2655e-14
1.09233e-13
1.89983e-13
5.84568e-13
3.37458e-13
1.11201e-12
8.52002e-14
1.49959e-12
4.63932e-14
1.01182e-14
2.06637e-14
1.56046e-14
1.89983e-13
8.35097e-14
8.43644e-14
3.57857e-13
2.13e-14
4.50637e-13
2.31966e-14
1.01182e-14
3.3062e-13
4.83744e-13
1.89983e-13
2.5888e-12
1.34983e-12
4.12861e-12
3.40801e-13
4.97629e-12
3.3689e-11
5.17218e-11
1.85573e-13
1.01182e-14
8.2655e-14
1.09233e-13
1.89983e-13
5.84568e-13
3.37458e-13
1.11201e-12
8.52002e-14
1.49959e-12
4.63932e-14
1.01182e-14
2.06637e-14
1.56046e-14
1.89983e-13
8.35097e-14
8.43644e-14
3.57857e-13
2.13e-14
4.50637e-13
2.31966e-14
1.01182e-14
3.3062e-13
4.83744e-13
1.89983e-13
2.5888e-12
1.34983e-12
4.12861e-12
3.40801e-13
4.97629e-12
3.3689e-11
5.07512e-11
1.85573e-13
1.01182e-14
8.2655e-14
1.09233e-13
1.89983e-13
5.84568e-13
3.37458e-13
1.11201e-12
8.52002e-14
1.49959e-12
4.63932e-14
1.01182e-14
2.06637e-14
1.56046e-14
1.89983e-13
8.35097e-14
8.43644e-14
3.57857e-13
2.13e-14
4.50637e-13
2.31966e-14
1.01182e-14
3.3062e-13
4.83744e-13
1.89983e-13
2.5888e-12
1.34983e-12
4.12861e-12
3.40801e-13
4.97629e-12
3.48675e-11
5.51125e-11
1.85573e-13
1.01182e-14
8.2655e-14
1.09233e-13
1.89983e-13
5.84568e-13
3.37458e-13
1.11201e-12
8.52002e-14
1.49959e-12
4.63932e-14
1.01182e-14
2.06637e-14
1.56046e-14
1.89983e-13
8.35097e-14
8.43644e-14
3.57857e-13
2.13e-14
4.50637e-13
2.31966e-14
1.01182e-14
3.3062e-13
4.83744e-13
1.89983e-13
2.5888e-12
1.34983e-12
4.12861e-12
3.40801e-13
4.97629e-12
3.48675e-11
5.46764e-11
1.85573e-13
1.01182e-14
8.2655e-14
1.09233e-13
1.89983e-13
5.84568e-13
3.37458e-13
1.11201e-12
8.52002e-14
1.49959e-12
4.63932e-14
1.01182e-14
2.06637e-14
1.56046e-14
1.89983e-13
8.35097e-14
8.43644e-14
3.57857e-13
2.13e-14
4.50637e-13
2.31966e-14
1.01182e-14
3.3062e-13
4.83744e-13
1.89983e-13
2.5888e-12
1.34983e-12
4.12861e-12
3.40801e-13
4.97629e-12
3.48675e-11
5.37857e-11
1.85573e-13
1.01182e-14
8.2655e-14
1.09233e-13
1.89983e-13
5.84568e-13
3.37458e-13
1.11201e-12
8.52002e-14
1.49959e-12
4.63932e-14
1.01182e-14
2.06637e-14
1.56046e-14
1.89983e-13
8.35097e-14
8.43644e-14
3.57857e-13
2.13e-14
4.50637e-13
2.31966e-14
1.01182e-14
3.3062e-13
4.83744e-13
1.89983e-13
2.5888e-12
1.34983e-12
4.12861e-12
3.40801e-13
4.97629e-12
3.48675e-11
5.2334e-11
1.85573e-13
1.01182e-14
8.2655e-14
1.09233e-13
1.89983e-13
5.84568e-13
3.37458e-13
1.11201e-12
8.52002e-14
1.49959e-12
4.63932e-14
1.01182e-14
2.06637e-14
1.56046e-14
1.89983e-13
8.35097e-14
8.43644e-14
3.57857e-13
2.13e-14
4.50637e-13
2.31966e-14
1.01182e-14
3.3062e-13
4.83744e-13
1.89983e-13
2.5888e-12
1.34983e-12
4.12861e-12
3.40801e-13
4.97629e-12
3.48675e-11
5.41103e-11
1.85573e-13
1.01182e-14
8.2655e-14
1.09233e-13
1.89983e-13
5.84568e-13
3.37458e-13
1.11201e-12
8.52002e-14
1.49959e-12
4.63932e-14
1.01182e-14
2.06637e-14
1.56046e-14
1.89983e-13
8.35097e-14
8.43644e-14
3.57857e-13
2.13e-14
4.50637e-13
2.31966e-14
1.01182e-14
3.3062e-13
4.83744e-13
1.89983e-13
2.5888e-12
1.34983e-12
4.12861e-12
3.40801e-13
4.97629e-12
3.48675e-11
5.20287e-11
1.85573e-13
1.01182e-14
8.2655e-14
1.09233e-13
1.89983e-13
5.84568e-13
3.37458e-13
1.11201e-12
8.52002e-14
1.49959e-12
4.63932e-14
1.01182e-14
2.06637e-14
1.56046e-14
1.89983e-13
8.35097e-14
8.43644e-14
3.57857e-13
2.13e-14
4.50637e-13
2.31966e-14
1.01182e-14
3.3062e-13
4.83744e-13
1.89983e-13
2.5888e-12
1.34983e-12
4.12861e-12
3.40801e-13
4.97629e-12
3.48675e-11
5.25881e-11
1.85573e-13
1.01182e-14
8.2655e-14
1.09233e-13
1.89983e-13
5.84568e-13
3.37458e-13
1.11201e-12
8.52002e-14
1.49959e-12
4.63932e-14
1.01182e-14
2.06637e-14
1.56046e-14
1.89983e-13
8.35097e-14
8.43644e-14
3.57857e-13
2.13e-14
4.50637e-13
2.31966e-14
1.01182e-14
3.3062e-13
4.83744e-13
1.89983e-13
2.5888e-12
1.34983e-12
4.12861e-12
3.40801e-13
4.97629e-12
3.48675e-11
5.40109e-11
1.85573e-13
1.01182e-14
8.2655e-14
1.09233e-13
1.89983e-13
5.84568e-13
3.37458e-13
1.11201e-12
8.52002e-14
1.49959e-12
4.63932e-14
1.01182e-14
2.06637e-14
1.56046e-14
1.89983e-13
8.35097e-14
8.43644e-14
3.57857e-13
2.13e-14
4.50637e-13
2.31966e-14
1.01182e-14
3.3062e-13
4.83744e-13
1.89983e-13
2.5888e-12
1.34983e-12
4.12861e-12
3.40801e-13
4.97629e-12
3.48675e-11
5.52724e-11
1.85573e-13
1.01182e-14
8.2655e-14
1.09233e-13
1.89983e-13
5.84568e-13
3.37458e-13
1.11201e-12
8.52002e-14
1.49959e-12
4.63932e-14
1.01182e-14
2.06637e-14
1.56046e-14
1.89983e-13
8.35097e-14
8.43644e-14
3.57857e-13
2.13e-14
4.50637e-13
2.31966e-14
1.01182e-14
3.3062e-13
4.83744e-13
1.89983e-13
2.5888e-12
1.34983e-12
4.12861e-12
3.40801e-13
4.97629e-12
3.48675e-11
5.42818e-11
1.85573e-13
1.01182e-14
8.2655e-14
1.09233e-13
1.89983e-13
5.84568e-13
3.37458e-13
1.11201e-12
8.52002e-14
1.49959e-12
4.63932e-14
1.01182e-14
2.06637e-14
1.56046e-14
1.89983e-13
8.35097e-14
8.43644e-14
3.57857e-13
2.13e-14
4.50637e-13
2.31966e-14
1.01182e-14
3.3062e-13
4.83744e-13
1.89983e-13
2.5888e-12
1.34983e-12
4.12861e-12
3.40801e-13
4.97629e-12
3.48675e-11
5.424e-11
1.85573e-13
1.01182e-14
8.2655e-14
1.09233e-13
1.89983e-13
5.84568e-13
3.37458e-13
1.11201e-12
8.52002e-14
1.49959e-12
4.63932e-14
1.01182e-14
2.06637e-14
1.56046e-14
1.89983e-13
8.35097e-14
8.43644e-14
3.57857e-13
2.13e-14
4.50637e-13
2.31966e-14
1.01182e-14
3.3062e-13
4.83744e-13
1.89983e-13
2.5888e-12
1.34983e-12
4.12861e-12
3.40801e-13
4.97629e-12
3.48675e-11
5.30782e-11
1.85573e-13
1.01182e-14
8.2655e-14
1.09233e-13
1.89983e-13
5.84568e-13
3.37458e-13
1.11201e-12
8.52002e-14
1.49959e-12
4.63932e-14
1.01182e-14
2.06637e-14
1.56046e-14
1.89983e-13
8.35097e-14
8.43644e-14
3.57857e-13
2.13e-14
4.50637e-13
2.31966e-14
1.01182e-14
3.3062e-13
4.83744e-13
1.89983e-13
2.5888e-12
[...]
1.09233e-13
1.89983e-13
5.84568e-13
3.37458e-13
1.11201e-12
8.52002e-14
1.49959e-12
4.63932e-14
1.01182e-14
2.06637e-14
1.56046e-14
1.89983e-13
8.35097e-14
8.43644e-14
3.57857e-13
2.13e-14
4.50637e-13
2.31966e-14
1.01182e-14
3.3062e-13
4.83744e-13
1.89983e-13
2.5888e-12
1.34983e-12
4.12861e-12
3.40801e-13
4.97629e-12
4.07599e-11
5.75643e-11
1.85573e-13
1.01182e-14
8.2655e-14
1.09233e-13
1.89983e-13
5.84568e-13
3.37458e-13
1.11201e-12
8.52002e-14
1.49959e-12
4.63932e-14
1.01182e-14
2.06637e-14
1.56046e-14
1.89983e-13
8.35097e-14
8.43644e-14
3.57857e-13
2.13e-14
4.50637e-13
2.31966e-14
1.01182e-14
3.3062e-13
4.83744e-13
1.89983e-13
2.5888e-12
1.34983e-12
4.12861e-12
3.40801e-13
4.97629e-12
4.07599e-11
5.9211e-11
1.85573e-13
1.01182e-14
8.2655e-14
1.09233e-13
1.89983e-13
5.84568e-13
3.37458e-13
1.11201e-12
8.52002e-14
1.49959e-12
4.63932e-14
1.01182e-14
2.06637e-14
1.56046e-14
1.89983e-13
8.35097e-14
8.43644e-14
3.57857e-13
2.13e-14
4.50637e-13
2.31966e-14
1.01182e-14
3.3062e-13
4.83744e-13
1.89983e-13
2.5888e-12
1.34983e-12
4.12861e-12
3.40801e-13
4.97629e-12
4.07599e-11
5.9296e-11
1.85573e-13
1.01182e-14
8.2655e-14
1.09233e-13
1.89983e-13
5.84568e-13
3.37458e-13
1.11201e-12
8.52002e-14
1.49959e-12
4.63932e-14
1.01182e-14
2.06637e-14
1.56046e-14
1.89983e-13
8.35097e-14
8.43644e-14
3.57857e-13
2.13e-14
4.50637e-13
2.31966e-14
1.01182e-14
3.3062e-13
4.83744e-13
1.89983e-13
2.5888e-12
1.34983e-12
4.12861e-12
3.40801e-13
4.97629e-12
4.07599e-11
5.90626e-11
1.85573e-13
1.01182e-14
8.2655e-14
1.09233e-13
1.89983e-13
5.84568e-13
3.37458e-13
1.11201e-12
8.52002e-14
1.49959e-12
4.63932e-14
1.01182e-14
2.06637e-14
1.56046e-14
1.89983e-13
8.35097e-14
8.43644e-14
3.57857e-13
2.13e-14
4.50637e-13
2.31966e-14
1.01182e-14
3.3062e-13
4.83744e-13
1.89983e-13
2.5888e-12
1.34983e-12
4.12861e-12
3.40801e-13
4.97629e-12
4.07599e-11
5.7878e-11
1.85573e-13
1.01182e-14
8.2655e-14
1.09233e-13
1.89983e-13
5.84568e-13
3.37458e-13
1.11201e-12
8.52002e-14
1.49959e-12
4.63932e-14
1.01182e-14
2.06637e-14
1.56046e-14
1.89983e-13
8.35097e-14
8.43644e-14
3.57857e-13
2.13e-14
4.50637e-13
2.31966e-14
1.01182e-14
3.3062e-13
4.83744e-13
1.89983e-13
2.5888e-12
1.34983e-12
4.12861e-12
3.40801e-13
4.97629e-12
4.19384e-11
5.93378e-11
1.85573e-13
1.01182e-14
8.2655e-14
1.09233e-13
1.89983e-13
5.84568e-13
3.37458e-13
1.11201e-12
8.52002e-14
1.49959e-12
4.63932e-14
1.01182e-14
2.06637e-14
1.56046e-14
1.89983e-13
8.35097e-14
8.43644e-14
3.57857e-13
2.13e-14
4.50637e-13
2.31966e-14
1.01182e-14
3.3062e-13
4.83744e-13
1.89983e-13
2.5888e-12
1.34983e-12
4.12861e-12
3.40801e-13
4.97629e-12
4.19384e-11
6.20394e-11
1.85573e-13
1.01182e-14
8.2655e-14
1.09233e-13
1.89983e-13
5.84568e-13
3.37458e-13
1.11201e-12
8.52002e-14
1.49959e-12
4.63932e-14
1.01182e-14
2.06637e-14
1.56046e-14
1.89983e-13
8.35097e-14
8.43644e-14
3.57857e-13
2.13e-14
4.50637e-13
2.31966e-14
1.01182e-14
3.3062e-13
4.83744e-13
1.89983e-13
2.5888e-12
1.34983e-12
4.12861e-12
3.40801e-13
4.97629e-12
4.19384e-11
5.99989e-11
1.85573e-13
1.01182e-14
8.2655e-14
1.09233e-13
1.89983e-13
5.84568e-13
3.37458e-13
1.11201e-12
8.52002e-14
1.49959e-12
4.63932e-14
1.01182e-14
2.06637e-14
1.56046e-14
1.89983e-13
8.35097e-14
8.43644e-14
3.57857e-13
2.13e-14
4.50637e-13
2.31966e-14
1.01182e-14
3.3062e-13
4.83744e-13
1.89983e-13
2.5888e-12
1.34983e-12
4.12861e-12
3.40801e-13
4.97629e-12
4.19384e-11
5.75021e-11
1.85573e-13
1.01182e-14
8.2655e-14
1.09233e-13
1.89983e-13
5.84568e-13
3.37458e-13
1.11201e-12
8.52002e-14
1.49959e-12
4.63932e-14
1.01182e-14
2.06637e-14
1.56046e-14
1.89983e-13
8.35097e-14
8.43644e-14
3.57857e-13
2.13e-14
4.50637e-13
2.31966e-14
1.01182e-14
3.3062e-13
4.83744e-13
1.89983e-13
2.5888e-12
1.34983e-12
4.12861e-12
3.40801e-13
4.97629e-12
4.19384e-11
5.99222e-11
1.85573e-13
1.01182e-14
8.2655e-14
1.09233e-13
1.89983e-13
5.84568e-13
3.37458e-13
1.11201e-12
8.52002e-14
1.49959e-12
4.63932e-14
1.01182e-14
2.06637e-14
1.56046e-14
1.89983e-13
8.35097e-14
8.43644e-14
3.57857e-13
2.13e-14
4.50637e-13
2.31966e-14
1.01182e-14
3.3062e-13
4.83744e-13
1.89983e-13
2.5888e-12
1.34983e-12
4.12861e-12
3.40801e-13
4.97629e-12
4.19384e-11
5.87109e-11
1.85573e-13
1.01182e-14
8.2655e-14
1.09233e-13
1.89983e-13
5.84568e-13
3.37458e-13
1.11201e-12
8.52002e-14
1.49959e-12
4.63932e-14
1.01182e-14
2.06637e-14
1.56046e-14
1.89983e-13
8.35097e-14
8.43644e-14
3.57857e-13
2.13e-14
4.50637e-13
2.31966e-14
1.01182e-14
3.3062e-13
4.83744e-13
1.89983e-13
2.5888e-12
1.34983e-12
4.12861e-12
3.40801e-13
4.97629e-12
4.19384e-11
6.00755e-11
1.85573e-13
1.01182e-14
8.2655e-14
1.09233e-13
1.89983e-13
5.84568e-13
3.37458e-13
1.11201e-12
8.52002e-14
1.49959e-12
4.63932e-14
1.01182e-14
2.06637e-14
1.56046e-14
1.89983e-13
8.35097e-14
8.43644e-14
3.57857e-13
2.13e-14
4.50637e-13
2.31966e-14
1.01182e-14
3.3062e-13
4.83744e-13
1.89983e-13
2.5888e-12
1.34983e-12
4.12861e-12
3.40801e-13
4.97629e-12
4.19384e-11
5.81595e-11
1.85573e-13
1.01182e-14
8.2655e-14
1.09233e-13
1.89983e-13
5.84568e-13
3.37458e-13
1.11201e-12
8.52002e-14
1.49959e-12
4.63932e-14
1.01182e-14
2.06637e-14
1.56046e-14
1.89983e-13
8.35097e-14
8.43644e-14
3.57857e-13
2.13e-14
4.50637e-13
2.31966e-14
1.01182e-14
3.3062e-13
4.83744e-13
1.89983e-13
2.5888e-12
1.34983e-12
4.12861e-12
3.40801e-13
4.97629e-12
4.19384e-11
6.13349e-11
1.85573e-13
1.01182e-14
8.2655e-14
1.09233e-13
1.89983e-13
5.84568e-13
3.37458e-13
1.11201e-12
8.52002e-14
1.49959e-12
4.63932e-14
1.01182e-14
2.06637e-14
1.56046e-14
1.89983e-13
8.35097e-14
8.43644e-14
3.57857e-13
2.13e-14
4.50637e-13
2.31966e-14
1.01182e-14
3.3062e-13
4.83744e-13
1.89983e-13
2.5888e-12
1.34983e-12
4.12861e-12
3.40801e-13
4.97629e-12
4.19384e-11
6.18147e-11
1.85573e-13
1.01182e-14
8.2655e-14
1.09233e-13
1.89983e-13
5.84568e-13
3.37458e-13
1.11201e-12
8.52002e-14
1.49959e-12
4.63932e-14
1.01182e-14
2.06637e-14
1.56046e-14
1.89983e-13
8.35097e-14
8.43644e-14
3.57857e-13
2.13e-14
4.50637e-13
2.31966e-14
1.01182e-14
3.3062e-13
4.83744e-13
1.89983e-13
2.5888e-12
1.34983e-12
4.12861e-12
3.40801e-13
4.97629e-12
4.19384e-11
6.03278e-11
1.85573e-13
1.01182e-14
8.2655e-14
1.09233e-13
1.89983e-13
5.84568e-13
3.37458e-13
1.11201e-12
8.52002e-14
1.49959e-12
4.63932e-14
1.01182e-14
2.06637e-14
1.56046e-14
1.89983e-13
8.35097e-14
8.43644e-14
3.57857e-13
2.13e-14
4.50637e-13
2.31966e-14
1.01182e-14
3.3062e-13
4.83744e-13
1.89983e-13
2.5888e-12
1.34983e-12
4.12861e-12
3.40801e-13
4.97629e-12
4.19384e-11
5.75391e-11
1.85573e-13
1.01182e-14
8.2655e-14
1.09233e-13
1.89983e-13
5.84568e-13
3.37458e-13
1.11201e-12
8.52002e-14
1.49959e-12
4.63932e-14
1.01182e-14
2.06637e-14
1.56046e-14
1.89983e-13
8.35097e-14
8.43644e-14
3.57857e-13
2.13e-14
4.50637e-13
2.31966e-14
1.01182e-14
3.3062e-13
4.83744e-13
1.89983e-13
2.5888e-12
1.34983e-12
4.12861e-12
3.40801e-13
4.97629e-12
4.19384e-11
6.13398e-11
1.85573e-13
1.01182e-14
8.2655e-14
1.09233e-13
1.89983e-13
5.84568e-13
3.37458e-13
1.11201e-12
8.52002e-14
1.49959e-12
4.63932e-14
1.01182e-14
2.06637e-14
1.56046e-14
1.89983e-13
8.35097e-14
8.43644e-14
3.57857e-13
2.13e-14
4.50637e-13
2.31966e-14
1.01182e-14
3.3062e-13
4.83744e-13
1.89983e-13
2.5888e-12
1.34983e-12
4.12861e-12
3.40801e-13
4.97629e-12
4.19384e-11
6.15357e-11
1.85573e-13
1.01182e-14
8.2655e-14
1.09233e-13
1.89983e-13
5.84568e-13
3.37458e-13
1.11201e-12
8.52002e-14
1.49959e-12
4.63932e-14
1.01182e-14
2.06637e-14
1.56046e-14
1.89983e-13
8.35097e-14
8.43644e-14
3.57857e-13
2.13e-14
4.50637e-13
2.31966e-14
1.01182e-14
3.3062e-13
4.83744e-13
1.89983e-13
2.5888e-12
1.34983e-12
4.12861e-12
3.40801e-13
4.97629e-12
4.19384e-11
5.86448e-11
1.85573e-13
1.01182e-14
8.2655e-14
1.09233e-13
1.89983e-13
5.84568e-13
3.37458e-13
1.11201e-12
8.52002e-14
1.49959e-12
4.63932e-14
1.01182e-14
2.06637e-14
1.56046e-14
1.89983e-13
8.35097e-14
8.43644e-14
3.57857e-13
2.13e-14
4.50637e-13
2.31966e-14
1.01182e-14
3.3062e-13
4.83744e-13
1.89983e-13
2.5888e-12
1.34983e-12
4.12861e-12
3.40801e-13
4.97629e-12
4.19384e-11
5.78282e-11
1.85573e-13
1.01182e-14
8.2655e-14
1.09233e-13
1.89983e-13
5.84568e-13
3.37458e-13
1.11201e-12
8.52002e-14
1.49959e-12
4.63932e-14
1.01182e-14
2.06637e-14
1.56046e-14
1.89983e-13
8.35097e-14
8.43644e-14
3.57857e-13
2.13e-14
4.50637e-13
2.31966e-14
1.01182e-14
3.3062e-13
4.83744e-13
1.89983e-13
2.5888e-12
1.34983e-12
4.12861e-12
3.40801e-13
4.97629e-12
4.31168e-11
6.32056e-11
1.85573e-13
1.01182e-14
8.2655e-14
1.09233e-13
1.89983e-13
5.84568e-13
3.37458e-13
1.11201e-12
8.52002e-14
1.49959e-12
4.63932e-14
1.01182e-14
2.06637e-14
1.56046e-14
1.89983e-13
8.35097e-14
8.43644e-14
3.57857e-13
2.13e-14
4.50637e-13
2.31966e-14
1.01182e-14
3.3062e-13
4.83744e-13
1.89983e-13
2.5888e-12
1.34983e-12
4.12861e-12
3.40801e-13
4.97629e-12
4.31168e-11
6.09807e-11
1.85573e-13
1.01182e-14
8.2655e-14
1.09233e-13
1.89983e-13
5.84568e-13
3.37458e-13
1.11201e-12
8.52002e-14
1.49959e-12
4.63932e-14
1.01182e-14
2.06637e-14
1.56046e-14
1.89983e-13
8.35097e-14
8.43644e-14
3.57857e-13
2.13e-14
4.50637e-13
2.31966e-14
1.01182e-14
3.3062e-13
4.83744e-13
1.89983e-13
2.5888e-12
1.34983e-12
4.12861e-12
3.40801e-13
4.97629e-12
4.31168e-11
6.12218e-11
1.85573e-13
1.01182e-14
8.2655e-14
1.09233e-13
1.89983e-13
5.84568e-13
3.37458e-13
1.11201e-12
8.52002e-14
1.49959e-12
4.63932e-14
1.01182e-14
2.06637e-14
1.56046e-14
1.89983e-13
8.35097e-14
8.43644e-14
3.57857e-13
2.13e-14
4.50637e-13
2.31966e-14
1.01182e-14
3.3062e-13
4.83744e-13
1.89983e-13
2.5888e-12
1.34983e-12
4.12861e-12
3.40801e-13
4.97629e-12
4.31168e-11
5.97514e-11
1.85573e-13
1.01182e-14
8.2655e-14
1.09233e-13
1.89983e-13
5.84568e-13
3.37458e-13
1.11201e-12
8.52002e-14
1.49959e-12
4.63932e-14
1.01182e-14
2.06637e-14
1.56046e-14
1.89983e-13
8.35097e-14
8.43644e-14
3.57857e-13
2.13e-14
4.50637e-13
2.31966e-14
1.01182e-14
3.3062e-13
4.83744e-13
1.89983e-13
2.5888e-12
1.34983e-12
4.12861e-12
3.40801e-13
4.97629e-12
4.31168e-11
6.32156e-11
1.85573e-13
1.01182e-14
8.2655e-14
1.09233e-13
1.89983e-13
5.84568e-13
3.37458e-13
1.11201e-12
8.52002e-14
1.49959e-12
4.63932e-14
1.01182e-14
2.06637e-14
1.56046e-14
1.89983e-13
8.35097e-14
8.43644e-14
3.57857e-13
2.13e-14
4.50637e-13
2.31966e-14
1.01182e-14
3.3062e-13
4.83744e-13
1.89983e-13
2.5888e-12
1.34983e-12
4.12861e-12
3.40801e-13
4.97629e-12
4.31168e-11
5.97405e-11
1.85573e-13
1.01182e-14
8.2655e-14
1.09233e-13
1.89983e-13
5.84568e-13
3.37458e-13
1.11201e-12
8.52002e-14
1.49959e-12
4.63932e-14
1.01182e-14
2.06637e-14
1.56046e-14
1.89983e-13
8.35097e-14
8.43644e-14
3.57857e-13
2.13e-14
4.50637e-13
2.31966e-14
1.01182e-14
3.3062e-13
4.83744e-13
1.89983e-13
2.5888e-12
1.34983e-12
4.12861e-12
3.40801e-13
4.97629e-12
4.31168e-11
5.94288e-11
1.85573e-13
1.01182e-14
8.2655e-14
1.09233e-13
1.89983e-13
5.84568e-13
3.37458e-13
1.11201e-12
8.52002e-14
1.49959e-12
4.63932e-14
1.01182e-14
2.06637e-14
1.56046e-14
1.89983e-13
8.35097e-14
8.43644e-14
3.57857e-13
2.13e-14
4.50637e-13
2.31966e-14
1.01182e-14
3.3062e-13
4.83744e-13
1.89983e-13
2.5888e-12
1.34983e-12
4.12861e-12
3.40801e-13
4.97629e-12
4.31168e-11
5.89626e-11
1.85573e-13
1.01182e-14
8.2655e-14
1.09233e-13
1.89983e-13
5.84568e-13
3.37458e-13
1.11201e-12
8.52002e-14
1.49959e-12
4.63932e-14
1.01182e-14
2.06637e-14
1.56046e-14
1.89983e-13
8.35097e-14
8.43644e-14
3.57857e-13
2.13e-14
4.50637e-13
2.31966e-14
1.01182e-14
3.3062e-13
4.83744e-13
1.89983e-13
2.5888e-12
1.34983e-12
4.12861e-12
3.40801e-13
4.97629e-12
4.31168e-11
6.03048e-11
1.85573e-13
1.01182e-14
8.2655e-14
1.09233e-13
1.89983e-13
5.84568e-13
3.37458e-13
1.11201e-12
8.52002e-14
1.49959e-12
4.63932e-14
1.01182e-14
2.06637e-14
1.56046e-14
1.89983e-13
8.35097e-14
8.43644e-14
3.57857e-13
2.13e-14
4.50637e-13
2.31966e-14
1.01182e-14
3.3062e-13
4.83744e-13
1.89983e-13
2.5888e-12
1.34983e-12
4.12861e-12
3.40801e-13
4.97629e-12
4.31168e-11
6.33299e-11
1.85573e-13
1.01182e-14
8.2655e-14
1.09233e-13
1.89983e-13
5.84568e-13
3.37458e-13
1.11201e-12
8.52002e-14
1.49959e-12
4.63932e-14
1.01182e-14
2.06637e-14
1.56046e-14
1.89983e-13
8.35097e-14
8.43644e-14
3.57857e-13
2.13e-14
4.50637e-13
2.31966e-14
1.01182e-14
3.3062e-13
4.83744e-13
1.89983e-13
2.5888e-12
1.34983e-12
4.12861e-12
3.40801e-13
4.97629e-12
4.31168e-11
5.99528e-11
1.85573e-13
1.01182e-14
8.2655e-14
1.09233e-13
1.89983e-13
5.84568e-13
3.37458e-13
1.11201e-12
8.52002e-14
1.49959e-12
4.63932e-14
1.01182e-14
2.06637e-14
1.56046e-14
1.89983e-13
8.35097e-14
8.43644e-14
3.57857e-13
2.13e-14
4.50637e-13
2.31966e-14
1.01182e-14
3.3062e-13
4.83744e-13
1.89983e-13
2.5888e-12
1.34983e-12
4.12861e-12
3.40801e-13
4.97629e-12
4.31168e-11
5.89906e-11
1.85573e-13
1.01182e-14
8.2655e-14
1.09233e-13
1.89983e-13
5.84568e-13
3.37458e-13
1.11201e-12
8.52002e-14
1.49959e-12
4.63932e-14
1.01182e-14
2.06637e-14
1.56046e-14
1.89983e-13
8.35097e-14
8.43644e-14
3.57857e-13
2.13e-14
4.50637e-13
2.31966e-14
1.01182e-14
3.3062e-13
4.83744e-13
1.89983e-13
2.5888e-12
1.34983e-12
4.12861e-12
3.40801e-13
4.97629e-12
4.31168e-11
6.11608e-11
1.85573e-13
1.01182e-14
8.2655e-14
1.09233e-13
1.89983e-13
5.84568e-13
3.37458e-13
1.11201e-12
8.52002e-14
1.49959e-12
4.63932e-14
1.01182e-14
2.06637e-14
1.56046e-14
1.89983e-13
8.35097e-14
8.43644e-14
3.57857e-13
2.13e-14
4.50637e-13
2.31966e-14
1.01182e-14
3.3062e-13
4.83744e-13
1.89983e-13
2.5888e-12
1.34983e-12
4.12861e-12
3.40801e-13
4.97629e-12
4.31168e-11
6.06618e-11
1.85573e-13
1.01182e-14
8.2655e-14
1.09233e-13
1.89983e-13
5.84568e-13
3.37458e-13
1.11201e-12
8.52002e-14
1.49959e-12
4.63932e-14
1.01182e-14
2.06637e-14
1.56046e-14
1.89983e-13
8.35097e-14
8.43644e-14
3.57857e-13
2.13e-14
4.50637e-13
2.31966e-14
1.01182e-14
3.3062e-13
4.83744e-13
1.89983e-13
2.5888e-12
1.34983e-12
4.12861e-12
3.40801e-13
4.97629e-12
4.31168e-11
5.92164e-11
1.85573e-13
1.01182e-14
8.2655e-14
1.09233e-13
1.89983e-13
5.84568e-13
3.37458e-13
1.11201e-12
8.52002e-14
1.49959e-12
4.63932e-14
1.01182e-14
2.06637e-14
1.56046e-14
1.89983e-13
8.35097e-14
8.43644e-14
3.57857e-13
2.13e-14
4.50637e-13
2.31966e-14
1.01182e-14
3.3062e-13
4.83744e-13
1.89983e-13
2.5888e-12
1.34983e-12
4.12861e-12
3.40801e-13
4.97629e-12
4.31168e-11
5.88288e-11
1.85573e-13
1.01182e-14
8.2655e-14
1.09233e-13
1.89983e-13
5.84568e-13
3.37458e-13
1.11201e-12
8.52002e-14
1.49959e-12
4.63932e-14
1.01182e-14
2.06637e-14
1.56046e-14
1.89983e-13
8.35097e-14
8.43644e-14
3.57857e-13
2.13e-14
4.50637e-13
2.31966e-14
1.01182e-14
3.3062e-13
4.83744e-13
1.89983e-13
2.5888e-12
1.34983e-12
4.12861e-12
3.40801e-13
4.97629e-12
4.42953e-11
6.15828e-11
1.85573e-13
1.01182e-14
8.2655e-14
1.09233e-13
1.89983e-13
5.84568e-13
3.37458e-13
1.11201e-12
8.52002e-14
1.49959e-12
4.63932e-14
1.01182e-14
2.06637e-14
1.56046e-14
1.89983e-13
8.35097e-14
8.43644e-14
3.57857e-13
2.13e-14
4.50637e-13
2.31966e-14
1.01182e-14
3.3062e-13
4.83744e-13
1.89983e-13
2.5888e-12
1.34983e-12
4.12861e-12
3.40801e-13
4.97629e-12
4.42953e-11
6.4806e-11
1.85573e-13
1.01182e-14
8.2655e-14
1.09233e-13
1.89983e-13
5.84568e-13
3.37458e-13
1.11201e-12
8.52002e-14
1.49959e-12
4.63932e-14
1.01182e-14
2.06637e-14
1.56046e-14
1.89983e-13
8.35097e-14
8.43644e-14
3.57857e-13
2.13e-14
4.50637e-13
2.31966e-14
1.01182e-14
3.3062e-13
4.83744e-13
1.89983e-13
2.5888e-12
1.34983e-12
4.12861e-12
3.40801e-13
4.97629e-12
4.42953e-11
6.05378e-11
1.85573e-13
1.01182e-14
8.2655e-14
1.09233e-13
1.89983e-13
5.84568e-13
3.37458e-13
1.11201e-12
8.52002e-14
1.49959e-12
4.63932e-14
1.01182e-14
2.06637e-14
1.56046e-14
1.89983e-13
8.35097e-14
8.43644e-14
3.57857e-13
2.13e-14
4.50637e-13
2.31966e-14
1.01182e-14
3.3062e-13
4.83744e-13
1.89983e-13
2.5888e-12
1.34983e-12
4.12861e-12
3.40801e-13
4.97629e-12
4.42953e-11
6.0264e-11
1.85573e-13
1.01182e-14
8.2655e-14
1.09233e-13
1.89983e-13
5.84568e-13
3.37458e-13
1.11201e-12
8.52002e-14
1.49959e-12
4.63932e-14
1.01182e-14
2.06637e-14
1.56046e-14
1.89983e-13
8.35097e-14
8.43644e-14
3.57857e-13
2.13e-14
4.50637e-13
2.31966e-14
1.01182e-14
3.3062e-13
4.83744e-13
1.89983e-13
2.5888e-12
1.34983e-12
4.12861e-12
3.40801e-13
4.97629e-12
4.42953e-11
6.18483e-11
1.85573e-13
1.01182e-14
8.2655e-14
1.09233e-13
1.89983e-13
5.84568e-13
3.37458e-13
1.11201e-12
8.52002e-14
1.49959e-12
4.63932e-14
1.01182e-14
2.06637e-14
1.56046e-14
1.89983e-13
8.35097e-14
8.43644e-14
3.57857e-13
2.13e-14
4.50637e-13
2.31966e-14
1.01182e-14
3.3062e-13
4.83744e-13
1.89983e-13
2.5888e-12
1.34983e-12
4.12861e-12
3.40801e-13
4.97629e-12
4.42953e-11
6.08092e-11
1.85573e-13
1.01182e-14
8.2655e-14
1.09233e-13
1.89983e-13
5.84568e-13
3.37458e-13
1.11201e-12
8.52002e-14
1.49959e-12
4.63932e-14
1.01182e-14
2.06637e-14
1.56046e-14
1.89983e-13
8.35097e-14
8.43644e-14
3.57857e-13
2.13e-14
4.50637e-13
2.31966e-14
1.01182e-14
3.3062e-13
4.83744e-13
1.89983e-13
2.5888e-12
1.34983e-12
4.12861e-12
3.40801e-13
4.97629e-12
4.42953e-11
6.04448e-11
1.85573e-13
1.01182e-14
8.2655e-14
1.09233e-13
1.89983e-13
5.84568e-13
3.37458e-13
1.11201e-12
8.52002e-14
1.49959e-12
4.63932e-14
1.01182e-14
2.06637e-14
1.56046e-14
1.89983e-13
8.35097e-14
8.43644e-14
3.57857e-13
2.13e-14
4.50637e-13
2.31966e-14
1.01182e-14
3.3062e-13
4.83744e-13
1.89983e-13
2.5888e-12
1.34983e-12
4.12861e-12
3.40801e-13
4.97629e-12
4.42953e-11
6.35938e-11
1.85573e-13
1.01182e-14
8.2655e-14
1.09233e-13
1.89983e-13
5.84568e-13
3.37458e-13
1.11201e-12
8.52002e-14
1.49959e-12
4.63932e-14
1.01182e-14
2.06637e-14
1.56046e-14
1.89983e-13
8.35097e-14
8.43644e-14
3.57857e-13
2.13e-14
4.50637e-13
2.31966e-14
1.01182e-14
3.3062e-13
4.83744e-13
1.89983e-13
2.5888e-12
1.34983e-12
4.12861e-12
3.40801e-13
4.97629e-12
4.42953e-11
6.39588e-11
1.85573e-13
1.01182e-14
8.2655e-14
1.09233e-13
1.89983e-13
5.84568e-13
3.37458e-13
1.11201e-12
8.52002e-14
1.49959e-12
4.63932e-14
1.01182e-14
2.06637e-14
1.56046e-14
1.89983e-13
8.35097e-14
8.43644e-14
3.57857e-13
2.13e-14
4.50637e-13
2.31966e-14
1.01182e-14
3.3062e-13
4.83744e-13
1.89983e-13
2.5888e-12
1.34983e-12
4.12861e-12
3.40801e-13
4.97629e-12
4.42953e-11
6.15278e-11
1.85573e-13
1.01182e-14
8.2655e-14
1.09233e-13
1.89983e-13
5.84568e-13
3.37458e-13
1.11201e-12
8.52002e-14
1.49959e-12
4.63932e-14
1.01182e-14
2.06637e-14
1.56046e-14
1.89983e-13
8.35097e-14
8.43644e-14
3.57857e-13
2.13e-14
4.50637e-13
2.31966e-14
1.01182e-14
3.3062e-13
4.83744e-13
1.89983e-13
2.5888e-12
1.34983e-12
4.12861e-12
3.40801e-13
4.97629e-12
4.42953e-11
6.08579e-11
1.85573e-13
1.01182e-14
8.2655e-14
1.09233e-13
1.89983e-13
5.84568e-13
3.37458e-13
1.11201e-12
8.52002e-14
1.49959e-12
4.63932e-14
1.01182e-14
2.06637e-14
1.56046e-14
1.89983e-13
8.35097e-14
8.43644e-14
3.57857e-13
2.13e-14
4.50637e-13
2.31966e-14
1.01182e-14
3.3062e-13
4.83744e-13
1.89983e-13
2.5888e-12
1.34983e-12
4.12861e-12
3.40801e-13
4.97629e-12
4.42953e-11
6.01916e-11
1.85573e-13
1.01182e-14
8.2655e-14
1.09233e-13
1.89983e-13
5.84568e-13
3.37458e-13
1.11201e-12
8.52002e-14
1.49959e-12
4.63932e-14
1.01182e-14
2.06637e-14
1.56046e-14
1.89983e-13
8.35097e-14
8.43644e-14
3.57857e-13
2.13e-14
4.50637e-13
2.31966e-14
1.01182e-14
3.3062e-13
4.83744e-13
1.89983e-13
2.5888e-12
1.34983e-12
4.12861e-12
3.40801e-13
4.97629e-12
4.42953e-11
6.20884e-11
1.85573e-13
1.01182e-14
8.2655e-14
1.09233e-13
1.89983e-13
5.84568e-13
3.37458e-13
1.11201e-12
8.52002e-14
1.49959e-12
4.63932e-14
1.01182e-14
2.06637e-14
1.56046e-14
1.89983e-13
8.35097e-14
8.43644e-14
3.57857e-13
2.13e-14
4.50637e-13
2.31966e-14
1.01182e-14
3.3062e-13
4.83744e-13
1.89983e-13
2.5888e-12
1.34983e-12
4.12861e-12
3.40801e-13
4.97629e-12
4.42953e-11
6.20372e-11
1.85573e-13
1.01182e-14
8.2655e-14
1.09233e-13
1.89983e-13
5.84568e-13
3.37458e-13
1.11201e-12
8.52002e-14
1.49959e-12
4.63932e-14
1.01182e-14
2.06637e-14
1.56046e-14
1.89983e-13
8.35097e-14
8.43644e-14
3.57857e-13
2.13e-14
4.50637e-13
2.31966e-14
1.01182e-14
3.3062e-13
4.83744e-13
1.89983e-13
2.5888e-12
1.34983e-12
4.12861e-12
3.40801e-13
4.97629e-12
4.42953e-11
6.17182e-11
1.85573e-13
1.01182e-14
8.2655e-14
1.09233e-13
1.89983e-13
5.84568e-13
3.37458e-13
1.11201e-12
8.52002e-14
1.49959e-12
4.63932e-14
1.01182e-14
2.06637e-14
1.56046e-14
1.89983e-13
8.35097e-14
8.43644e-14
3.57857e-13
2.13e-14
4.50637e-13
2.31966e-14
1.01182e-14
3.3062e-13
4.83744e-13
1.89983e-13
2.5888e-12
1.34983e-12
4.12861e-12
3.40801e-13
4.97629e-12
4.42953e-11
6.09216e-11
