BEGIN Configuration File: /Users/yash/Projects/wsc-noc-dvfs/final_paper_sims/mesh/mesh_perf_target_inj0.4_cap0.4/config.cfg

// Final Paper Simulation Config
// Topology: mesh, Policy: perf_target
// Injection Rate: 0.4, Power Cap: 0.4W

// VC Configuration
read_request_begin_vc  = 0;
read_request_end_vc    = 5;
write_reply_begin_vc   = 2;
write_reply_end_vc     = 7;
read_reply_begin_vc    = 8;
read_reply_end_vc      = 12;
write_request_begin_vc = 10;
write_request_end_vc   = 15;
num_vcs     = 16;
vc_buf_size = 8;
wait_for_tail_credit = 0;
vc_allocator = max_size;
sw_allocator = max_size;
alloc_iters  = 2;
credit_delay   = 2;
routing_delay  = 0;
vc_alloc_delay = 1;
sw_alloc_delay = 1;
st_final_delay = 1;
input_speedup     = 1;
output_speedup    = 1;
internal_speedup  = 1.0;

// Detailed simulation settings (longer runs for accuracy)
sim_type = latency;
warmup_periods = 3;
sim_count = 1;
sample_period  = 10000;
max_samples = 15;
use_read_write = 0;
batch_size = 10000;
latency_thres = 5000;
packet_size = 1;

// Topology

topology = mesh;
k  = 8;
n  = 2;
routing_function = dor;


// Traffic - 2 classes with different priorities
// Using uniform traffic with configurable injection rate
// Split injection: 30% control (class 0), 70% batch (class 1)
traffic = uniform;
injection_rate = {0.12,0.27999999999999997};

// 2-class traffic for SLO-aware policies
classes = 2;
class_priority = {1,0};
class_slo = {50,-1};
priority_policy = static_class;

// Orion power model
use_orion = 1;
Vdd = 1.0;
Orion_tr = 0.2;
Orion_Freq = 1e9;
Orion_inport = 5;
Orion_outport = 5;
Orion_bitwidth = 128;
Orion_vc_class = 1;
Orion_IsSharedBuffIn = 0;
Orion_IsSharedBuffOut = 0;
Orion_crossbar_model = 0;
Orion_crsbar_degree = 4;
Orion_Cxbar_Cxpoint = 0;
Orion_trans_type = 0;
Orion_IsInBuff = 1;
Orion_out_buf_size = 0;
Orion_IsOutBuff = 0;
Orion_buff_type = 0;
Orion_in_arb_model = 1;
Orion_out_arb_model = 1;
Orion_allocator_model = 1;
Orion_in_vc_arb_model = 1;
Orion_out_vc_arb_model = 1;
wire_length = 1.0;

// Power cap
power_cap = 0.4;

// DVFS base settings
dvfs_epoch = 10000;
dvfs_log_interval = 10000;
dvfs_freqs = 1.0;
dvfs_voltages = 1.0;
router_domains = 0;

// Policy-specific settings

dvfs_policy = perf_target;
dvfs_min_scale = 0.5;
dvfs_max_scale = 1.0;
perf_target_metric = latency;
perf_target_value = 50.0;
perf_target_class = 0;
perf_target_kp = 0.05;
perf_target_per_router = 1;
perf_target_headroom_margin = 0.05;


// Output files
latency_csv = latency.csv;
stall_csv = stalls.csv;
throughput_csv = throughput.csv;
summary_csv = summary.csv;
energy_csv = energy.csv;
epoch_csv = epoch.csv;
dvfs_log = power_log;
output_dir = /Users/yash/Projects/wsc-noc-dvfs/final_paper_sims/mesh;
run_name = mesh_perf_target_inj0.4_cap0.4;

END Configuration File: /Users/yash/Projects/wsc-noc-dvfs/final_paper_sims/mesh/mesh_perf_target_inj0.4_cap0.4/config.cfg
Class 0:
Packet latency average = 38.1469
	minimum = 6
	maximum = 148
Network latency average = 38.1469
	minimum = 6
	maximum = 148
Slowest packet = 50487
Flit latency average = 38.1469
	minimum = 6
	maximum = 148
Slowest flit = 50487
Fragmentation average = 0
	minimum = 0
	maximum = 0
Injected packet rate average = 0.120137
	minimum = 0.1138 (at node 30)
	maximum = 0.1294 (at node 3)
Accepted packet rate average = 0.119695
	minimum = 0.1104 (at node 45)
	maximum = 0.1285 (at node 28)
Injected flit rate average = 0.120137
	minimum = 0.1138 (at node 30)
	maximum = 0.1294 (at node 3)
Accepted flit rate average= 0.119695
	minimum = 0.1104 (at node 45)
	maximum = 0.1285 (at node 28)
Injected packet length average = 1
Accepted packet length average = 1
Total in-flight flits = 283 (0 measured)
Buffer busy stall rate = 0
Buffer conflict stall rate = 0
Buffer full stall rate = 0
Buffer reserved stall rate = 0.00702812
Crossbar conflict stall rate = 0.422853
Class 1:
Packet latency average = 38.2358
	minimum = 6
	maximum = 174
Network latency average = 38.0354
	minimum = 6
	maximum = 174
Slowest packet = 155044
Flit latency average = 38.0354
	minimum = 6
	maximum = 174
Slowest flit = 155044
Fragmentation average = 0
	minimum = 0
	maximum = 0
Injected packet rate average = 0.279075
	minimum = 0.2682 (at node 2)
	maximum = 0.2885 (at node 56)
Accepted packet rate average = 0.278117
	minimum = 0.267 (at node 36)
	maximum = 0.2863 (at node 27)
Injected flit rate average = 0.279075
	minimum = 0.2682 (at node 2)
	maximum = 0.2885 (at node 56)
Accepted flit rate average= 0.278117
	minimum = 0.267 (at node 36)
	maximum = 0.2863 (at node 27)
Injected packet length average = 1
Accepted packet length average = 1
Total in-flight flits = 618 (0 measured)
Buffer busy stall rate = 0
Buffer conflict stall rate = 0
Buffer full stall rate = 0
Buffer reserved stall rate = 0.0158781
Crossbar conflict stall rate = 0.960405
latency change    = 1
throughput change = 1
latency change    = 1
throughput change = 1
DVFS epoch t=10000 total_power=2.92989 headroom=-2.52989 avg_power=2.92989 domains{0:freq=1,power=2.92989} routers{0:freq=1,power=0.0419729, 1:freq=1,power=0.043627, 2:freq=1,power=0.0446748, 3:freq=1,power=0.0452201, 4:freq=1,power=0.0452138, 5:freq=1,power=0.0446758, 6:freq=1,power=0.0435517, 7:freq=1,power=0.0419591, 8:freq=1,power=0.0435834, 9:freq=1,power=0.0452437, 10:freq=1,power=0.0463509, 11:freq=1,power=0.0468989, 12:freq=1,power=0.0469245, 13:freq=1,power=0.0463211, 14:freq=1,power=0.0452674, 15:freq=1,power=0.0436378, 16:freq=1,power=0.0446722, 17:freq=1,power=0.0463085, 18:freq=1,power=0.0474089, 19:freq=1,power=0.0479492, 20:freq=1,power=0.0479486, 21:freq=1,power=0.0473882, 22:freq=1,power=0.0463324, 23:freq=1,power=0.0446928, 24:freq=1,power=0.0452364, 25:freq=1,power=0.0468263, 26:freq=1,power=0.0478981, 27:freq=1,power=0.0484412, 28:freq=1,power=0.0484396, 29:freq=1,power=0.047885, 30:freq=1,power=0.0468462, 31:freq=1,power=0.0452306, 32:freq=1,power=0.0452409, 33:freq=1,power=0.0468489, 34:freq=1,power=0.0479052, 35:freq=1,power=0.048517, 36:freq=1,power=0.0485145, 37:freq=1,power=0.0479195, 38:freq=1,power=0.046865, 39:freq=1,power=0.0452232, 40:freq=1,power=0.0447171, 41:freq=1,power=0.046365, 42:freq=1,power=0.0474602, 43:freq=1,power=0.0480166, 44:freq=1,power=0.0479595, 45:freq=1,power=0.0473857, 46:freq=1,power=0.0463424, 47:freq=1,power=0.0447052, 48:freq=1,power=0.0436024, 49:freq=1,power=0.0452471, 50:freq=1,power=0.0463144, 51:freq=1,power=0.0468278, 52:freq=1,power=0.0467959, 53:freq=1,power=0.0462831, 54:freq=1,power=0.0452575, 55:freq=1,power=0.0435976, 56:freq=1,power=0.0420087, 57:freq=1,power=0.0436667, 58:freq=1,power=0.0447443, 59:freq=1,power=0.0452887, 60:freq=1,power=0.0453045, 61:freq=1,power=0.044727, 62:freq=1,power=0.0436329, 63:freq=1,power=0.041981}
PERF_TARGET_DIFF: epoch=1 latency=88 target=50 latency_ok=0 budget=0.5 headroom=-2.52989
Class 0:
Packet latency average = 403.664
	minimum = 6
	maximum = 8000
Network latency average = 389.657
	minimum = 6
	maximum = 8000
Slowest packet = 285005
Flit latency average = 389.657
	minimum = 6
	maximum = 8000
Slowest flit = 285005
Fragmentation average = 0
	minimum = 0
	maximum = 0
Injected packet rate average = 0.115979
	minimum = 0.0864 (at node 58)
	maximum = 0.1263 (at node 47)
Accepted packet rate average = 0.108972
	minimum = 0.09985 (at node 31)
	maximum = 0.1168 (at node 28)
Injected flit rate average = 0.115979
	minimum = 0.0864 (at node 58)
	maximum = 0.1263 (at node 47)
Accepted flit rate average= 0.108972
	minimum = 0.09985 (at node 31)
	maximum = 0.1168 (at node 28)
Injected packet length average = 1
Accepted packet length average = 1
Total in-flight flits = 8985 (0 measured)
Buffer busy stall rate = 0.646243
Buffer conflict stall rate = 0.586037
Buffer full stall rate = 1.14723
Buffer reserved stall rate = 1.42474
Crossbar conflict stall rate = 0.8713
Class 1:
Packet latency average = 363.346
	minimum = 6
	maximum = 7858
Network latency average = 274.196
	minimum = 6
	maximum = 7299
Slowest packet = 304400
Flit latency average = 274.196
	minimum = 6
	maximum = 7299
Slowest flit = 304400
Fragmentation average = 0
	minimum = 0
	maximum = 0
Injected packet rate average = 0.238791
	minimum = 0.1746 (at node 15)
	maximum = 0.28565 (at node 5)
Accepted packet rate average = 0.232285
	minimum = 0.221 (at node 31)
	maximum = 0.24335 (at node 27)
Injected flit rate average = 0.238791
	minimum = 0.1746 (at node 15)
	maximum = 0.28565 (at node 5)
Accepted flit rate average= 0.232285
	minimum = 0.221 (at node 31)
	maximum = 0.24335 (at node 27)
Injected packet length average = 1
Accepted packet length average = 1
Total in-flight flits = 8367 (0 measured)
Buffer busy stall rate = 0.756252
Buffer conflict stall rate = 0.831801
Buffer full stall rate = 1.24466
Buffer reserved stall rate = 2.37303
Crossbar conflict stall rate = 1.74683
latency change    = 0.905498
throughput change = 0.0984056
latency change    = 0.894767
throughput change = 0.197309
DVFS epoch t=20000 total_power=2.1213 headroom=-1.7213 avg_power=2.5256 domains{0:freq=0.555556,power=2.1213} routers{0:freq=0.555556,power=0.0241174, 1:freq=0.638889,power=0.0283865, 2:freq=0.611111,power=0.0280904, 3:freq=1,power=0.0442531, 4:freq=0.694444,power=0.0321558, 5:freq=0.583333,power=0.0274675, 6:freq=0.583333,power=0.0265389, 7:freq=0.583333,power=0.0253344, 8:freq=0.555556,power=0.0252495, 9:freq=0.666667,power=0.0306329, 10:freq=0.611111,power=0.0293604, 11:freq=0.555556,power=0.0276876, 12:freq=0.638889,power=0.0310372, 13:freq=1,power=0.0451259, 14:freq=0.555556,power=0.0262241, 15:freq=0.555556,power=0.0250982, 16:freq=0.611111,power=0.0286263, 17:freq=0.555556,power=0.0277223, 18:freq=1,power=0.0465434, 19:freq=0.666667,power=0.0336709, 20:freq=1,power=0.0470109, 21:freq=1,power=0.0464068, 22:freq=0.555556,power=0.0273686, 23:freq=0.583333,power=0.0270173, 24:freq=0.694444,power=0.0324176, 25:freq=1,power=0.0460685, 26:freq=0.611111,power=0.031457, 27:freq=1,power=0.0475688, 28:freq=0.75,power=0.0375403, 29:freq=1,power=0.0469611, 30:freq=1,power=0.0458006, 31:freq=0.527778,power=0.0252461, 32:freq=0.722222,power=0.0335388, 33:freq=1,power=0.0461009, 34:freq=0.611111,power=0.0314533, 35:freq=1,power=0.0475561, 36:freq=1,power=0.0475798, 37:freq=1,power=0.0469445, 38:freq=0.611111,power=0.0301502, 39:freq=0.555556,power=0.0264096, 40:freq=0.555556,power=0.0266181, 41:freq=0.611111,power=0.0303352, 42:freq=0.75,power=0.0369371, 43:freq=1,power=0.0475546, 44:freq=1,power=0.0476472, 45:freq=0.694444,power=0.0347629, 46:freq=0.722222,power=0.03476, 47:freq=0.583333,power=0.0274937, 48:freq=0.527778,power=0.0242223, 49:freq=0.666667,power=0.030933, 50:freq=0.638889,power=0.030739, 51:freq=0.666667,power=0.0324805, 52:freq=1,power=0.0460382, 53:freq=0.638889,power=0.0310069, 54:freq=0.527778,power=0.0254709, 55:freq=0.527778,power=0.0240781, 56:freq=0.583333,power=0.025001, 57:freq=0.555556,power=0.024602, 58:freq=0.555556,power=0.0251521, 59:freq=0.611111,power=0.0277603, 60:freq=0.638889,power=0.0290083, 61:freq=0.583333,power=0.0266662, 62:freq=0.527778,power=0.0239518, 63:freq=0.555556,power=0.0241618}
PERF_TARGET_DIFF: epoch=2 latency=2464 target=50 latency_ok=0 budget=0.5 headroom=-1.7213
Class 0:
Packet latency average = 1379.21
	minimum = 6
	maximum = 14155
Network latency average = 1032.74
	minimum = 6
	maximum = 13961
Slowest packet = 359960
Flit latency average = 1032.74
	minimum = 6
	maximum = 13961
Slowest flit = 359960
Fragmentation average = 0
	minimum = 0
	maximum = 0
Injected packet rate average = 0.120747
	minimum = 0.0533 (at node 0)
	maximum = 0.1842 (at node 58)
Accepted packet rate average = 0.122928
	minimum = 0.111 (at node 11)
	maximum = 0.1408 (at node 31)
Injected flit rate average = 0.120747
	minimum = 0.0533 (at node 0)
	maximum = 0.1842 (at node 58)
Accepted flit rate average= 0.122928
	minimum = 0.111 (at node 11)
	maximum = 0.1408 (at node 31)
Injected packet length average = 1
Accepted packet length average = 1
Total in-flight flits = 7590 (0 measured)
Buffer busy stall rate = 2.61036
Buffer conflict stall rate = 1.99822
Buffer full stall rate = 4.05613
Buffer reserved stall rate = 3.99265
Crossbar conflict stall rate = 1.44429
Class 1:
Packet latency average = 2443.8
	minimum = 6
	maximum = 16866
Network latency average = 658.054
	minimum = 6
	maximum = 13552
Slowest packet = 297052
Flit latency average = 658.054
	minimum = 6
	maximum = 13552
Slowest flit = 359317
Fragmentation average = 0
	minimum = 0
	maximum = 0
Injected packet rate average = 0.228461
	minimum = 0 (at node 0)
	maximum = 0.4375 (at node 60)
Accepted packet rate average = 0.229119
	minimum = 0.2034 (at node 24)
	maximum = 0.2554 (at node 31)
Injected flit rate average = 0.228461
	minimum = 0 (at node 0)
	maximum = 0.4375 (at node 60)
Accepted flit rate average= 0.229119
	minimum = 0.2034 (at node 24)
	maximum = 0.2554 (at node 31)
Injected packet length average = 1
Accepted packet length average = 1
Total in-flight flits = 7937 (0 measured)
Buffer busy stall rate = 2.15541
Buffer conflict stall rate = 2.66139
Buffer full stall rate = 3.12301
Buffer reserved stall rate = 6.62655
Crossbar conflict stall rate = 2.77012
latency change    = 0.707322
throughput change = 0.113532
latency change    = 0.851319
throughput change = 0.0138199
Warmed up ...Time used is 30000 cycles
DVFS epoch t=30000 total_power=2.82866 headroom=-2.42866 avg_power=2.62662 domains{0:freq=0.66,power=2.82866} routers{0:freq=0.66,power=0.0289169, 1:freq=1,power=0.0439876, 2:freq=1,power=0.0448813, 3:freq=1,power=0.0458787, 4:freq=1,power=0.0459586, 5:freq=1,power=0.0454686, 6:freq=1,power=0.0444692, 7:freq=1,power=0.04333, 8:freq=0.67125,power=0.031301, 9:freq=1,power=0.0467196, 10:freq=1,power=0.0479462, 11:freq=1,power=0.0484482, 12:freq=1,power=0.0484783, 13:freq=1,power=0.0479271, 14:freq=1,power=0.0467128, 15:freq=1,power=0.0451891, 16:freq=0.6775,power=0.0332805, 17:freq=1,power=0.0486692, 18:freq=1,power=0.0496374, 19:freq=1,power=0.0500087, 20:freq=1,power=0.0500226, 21:freq=1,power=0.0495597, 22:freq=1,power=0.0483871, 23:freq=1,power=0.0466792, 24:freq=0.695,power=0.0337981, 25:freq=1,power=0.0480539, 26:freq=1,power=0.0491323, 27:freq=0.6875,power=0.0365688, 28:freq=0.7125,power=0.0376438, 29:freq=0.72375,power=0.0376877, 30:freq=1,power=0.0480197, 31:freq=1,power=0.0468298, 32:freq=0.65875,power=0.0321535, 33:freq=1,power=0.0480375, 34:freq=1,power=0.0491348, 35:freq=0.68125,power=0.0362654, 36:freq=0.70125,power=0.0371687, 37:freq=1,power=0.049129, 38:freq=1,power=0.0480848, 39:freq=1,power=0.0467732, 40:freq=0.7125,power=0.0340883, 41:freq=1,power=0.0477611, 42:freq=1,power=0.0489086, 43:freq=1,power=0.0492673, 44:freq=0.7375,power=0.03855, 45:freq=1,power=0.0490077, 46:freq=0.75,power=0.0376754, 47:freq=1,power=0.0466399, 48:freq=0.6625,power=0.0312739, 49:freq=1,power=0.0472443, 50:freq=1,power=0.0484565, 51:freq=1,power=0.0487913, 52:freq=1,power=0.0488086, 53:freq=1,power=0.0483987, 54:freq=1,power=0.0473626, 55:freq=1,power=0.0457542, 56:freq=0.66125,power=0.0291607, 57:freq=1,power=0.044114, 58:freq=1,power=0.0450464, 59:freq=1,power=0.0462262, 60:freq=1,power=0.0463526, 61:freq=1,power=0.045576, 62:freq=1,power=0.0444057, 63:freq=1,power=0.0434534}
PERF_TARGET_DIFF: epoch=3 latency=0 target=50 latency_ok=1 budget=0.5 headroom=-2.42866
Class 0:
Packet latency average = 1315.19
	minimum = 6
	maximum = 14076
Network latency average = 836.833
	minimum = 6
	maximum = 5739
Slowest packet = 677685
Flit latency average = 993.943
	minimum = 6
	maximum = 14663
Slowest flit = 378363
Fragmentation average = 0
	minimum = 0
	maximum = 0
Injected packet rate average = 0.124195
	minimum = 0.1105 (at node 63)
	maximum = 0.2116 (at node 57)
Accepted packet rate average = 0.125159
	minimum = 0.1163 (at node 62)
	maximum = 0.1347 (at node 51)
Injected flit rate average = 0.124195
	minimum = 0.1105 (at node 63)
	maximum = 0.2116 (at node 57)
Accepted flit rate average= 0.125159
	minimum = 0.1163 (at node 62)
	maximum = 0.1347 (at node 51)
Injected packet length average = 1
Accepted packet length average = 1
Total in-flight flits = 6966 (6966 measured)
Buffer busy stall rate = 0.999387
Buffer conflict stall rate = 1.93483
Buffer full stall rate = 2.18669
Buffer reserved stall rate = 3.50792
Crossbar conflict stall rate = 2.20844
Class 1:
Packet latency average = 3345.93
	minimum = 6
	maximum = 27266
Network latency average = 579.258
	minimum = 6
	maximum = 5752
Slowest packet = 677692
Flit latency average = 618.388
	minimum = 6
	maximum = 10656
Slowest flit = 532183
Fragmentation average = 0
	minimum = 0
	maximum = 0
Injected packet rate average = 0.220345
	minimum = 0 (at node 0)
	maximum = 0.4263 (at node 61)
Accepted packet rate average = 0.219216
	minimum = 0.2054 (at node 45)
	maximum = 0.2383 (at node 32)
Injected flit rate average = 0.220345
	minimum = 0 (at node 0)
	maximum = 0.4263 (at node 61)
Accepted flit rate average= 0.219216
	minimum = 0.2054 (at node 45)
	maximum = 0.2383 (at node 32)
Injected packet length average = 1
Accepted packet length average = 1
Total in-flight flits = 8658 (8655 measured)
Buffer busy stall rate = 0.71018
Buffer conflict stall rate = 2.14532
Buffer full stall rate = 1.4861
Buffer reserved stall rate = 5.11083
Crossbar conflict stall rate = 3.82084
latency change    = 0.0486712
throughput change = 0.0178273
latency change    = 0.269621
throughput change = 0.0451753
DVFS epoch t=40000 total_power=2.34252 headroom=-1.94252 avg_power=2.55559 domains{0:freq=0.7,power=2.34252} routers{0:freq=0.7,power=0.0319475, 1:freq=0.75,power=0.0355611, 2:freq=0.75,power=0.0369634, 3:freq=0.75,power=0.0374502, 4:freq=0.7,power=0.0352356, 5:freq=0.75,power=0.0367947, 6:freq=0.75,power=0.0356122, 7:freq=0.7,power=0.0318456, 8:freq=0.75,power=0.0357615, 9:freq=0.75,power=0.0372002, 10:freq=0.75,power=0.0382156, 11:freq=0.75,power=0.0388285, 12:freq=0.7,power=0.036586, 13:freq=0.7,power=0.0359623, 14:freq=0.75,power=0.0369548, 15:freq=0.7,power=0.0332587, 16:freq=0.75,power=0.0369288, 17:freq=0.7,power=0.0358465, 18:freq=0.7,power=0.0368543, 19:freq=0.75,power=0.0396814, 20:freq=0.7,power=0.0373845, 21:freq=0.7,power=0.0367176, 22:freq=0.75,power=0.0376935, 23:freq=0.7,power=0.0340601, 24:freq=0.75,power=0.0372944, 25:freq=0.75,power=0.0384942, 26:freq=0.7,power=0.0374447, 27:freq=0.75,power=0.0403811, 28:freq=0.7,power=0.0380536, 29:freq=0.7,power=0.037422, 30:freq=0.75,power=0.038433, 31:freq=0.7,power=0.0346469, 32:freq=0.75,power=0.0373929, 33:freq=0.7,power=0.0365041, 34:freq=0.7,power=0.0375637, 35:freq=0.75,power=0.0404973, 36:freq=0.75,power=0.0403536, 37:freq=0.7,power=0.037555, 38:freq=0.75,power=0.0385048, 39:freq=0.7,power=0.034742, 40:freq=0.75,power=0.0368937, 41:freq=0.75,power=0.0381052, 42:freq=0.7,power=0.0370498, 43:freq=0.75,power=0.0398732, 44:freq=0.75,power=0.0397483, 45:freq=0.7,power=0.0369697, 46:freq=0.7,power=0.035834, 47:freq=0.7,power=0.0343119, 48:freq=0.75,power=0.0358106, 49:freq=0.75,power=0.0370929, 50:freq=0.7,power=0.0360502, 51:freq=0.75,power=0.0388437, 52:freq=0.7,power=0.0365812, 53:freq=0.7,power=0.0360556, 54:freq=0.7,power=0.0349078, 55:freq=0.7,power=0.0333395, 56:freq=0.7,power=0.0321708, 57:freq=0.75,power=0.0354824, 58:freq=0.75,power=0.0367898, 59:freq=0.75,power=0.0373256, 60:freq=0.7,power=0.0350797, 61:freq=0.75,power=0.036731, 62:freq=0.75,power=0.03513, 63:freq=0.7,power=0.031719}
PERF_TARGET_DIFF: epoch=4 latency=3392 target=50 latency_ok=0 budget=0.5 headroom=-1.94252
Class 0:
Packet latency average = 1169.83
	minimum = 6
	maximum = 14076
Network latency average = 804.274
	minimum = 6
	maximum = 9433
Slowest packet = 677685
Flit latency average = 887.904
	minimum = 6
	maximum = 14663
Slowest flit = 378363
Fragmentation average = 0
	minimum = 0
	maximum = 0
Injected packet rate average = 0.119627
	minimum = 0.0933 (at node 58)
	maximum = 0.17345 (at node 0)
Accepted packet rate average = 0.119873
	minimum = 0.1125 (at node 7)
	maximum = 0.12855 (at node 28)
Injected flit rate average = 0.119627
	minimum = 0.0933 (at node 58)
	maximum = 0.17345 (at node 0)
Accepted flit rate average= 0.119873
	minimum = 0.1125 (at node 7)
	maximum = 0.12855 (at node 28)
Injected packet length average = 1
Accepted packet length average = 1
Total in-flight flits = 7273 (7273 measured)
Buffer busy stall rate = 1.38163
Buffer conflict stall rate = 1.68732
Buffer full stall rate = 2.50866
Buffer reserved stall rate = 3.66699
Crossbar conflict stall rate = 1.86488
Class 1:
Packet latency average = 4554.19
	minimum = 6
	maximum = 35500
Network latency average = 593.598
	minimum = 6
	maximum = 8389
Slowest packet = 677692
Flit latency average = 611.19
	minimum = 6
	maximum = 10656
Slowest flit = 532183
Fragmentation average = 0
	minimum = 0
	maximum = 0
Injected packet rate average = 0.240458
	minimum = 0 (at node 0)
	maximum = 0.3759 (at node 2)
Accepted packet rate average = 0.238755
	minimum = 0.23075 (at node 23)
	maximum = 0.24605 (at node 35)
Injected flit rate average = 0.240458
	minimum = 0 (at node 0)
	maximum = 0.3759 (at node 2)
Accepted flit rate average= 0.238755
	minimum = 0.23075 (at node 23)
	maximum = 0.24605 (at node 35)
Injected packet length average = 1
Accepted packet length average = 1
Total in-flight flits = 10117 (10115 measured)
Buffer busy stall rate = 1.37144
Buffer conflict stall rate = 2.37353
Buffer full stall rate = 2.35183
Buffer reserved stall rate = 6.77161
Crossbar conflict stall rate = 3.67634
latency change    = 0.124259
throughput change = 0.044096
latency change    = 0.265307
throughput change = 0.0818374
DVFS epoch t=50000 total_power=2.96918 headroom=-2.56918 avg_power=2.63831 domains{0:freq=0.688705,power=2.96918} routers{0:freq=0.688705,power=0.0322822, 1:freq=1,power=0.0472938, 2:freq=1,power=0.0485923, 3:freq=0.69697,power=0.0358688, 4:freq=1,power=0.0490818, 5:freq=0.703857,power=0.0355067, 6:freq=1,power=0.0472587, 7:freq=0.684573,power=0.0320037, 8:freq=0.719008,power=0.0353162, 9:freq=1,power=0.048995, 10:freq=0.749311,power=0.0388168, 11:freq=0.732782,power=0.0383885, 12:freq=1,power=0.049864, 13:freq=1,power=0.0491968, 14:freq=1,power=0.0482774, 15:freq=0.692837,power=0.0336713, 16:freq=0.732782,power=0.0371614, 17:freq=1,power=0.0504256, 18:freq=1,power=0.0515209, 19:freq=1,power=0.0520974, 20:freq=1,power=0.0521745, 21:freq=0.745179,power=0.0403995, 22:freq=1,power=0.050424, 23:freq=0.73416,power=0.0369507, 24:freq=1,power=0.0498268, 25:freq=1,power=0.052083, 26:freq=1,power=0.0529213, 27:freq=1,power=0.0533135, 28:freq=1,power=0.0533328, 29:freq=1,power=0.0525052, 30:freq=1,power=0.0512957, 31:freq=1,power=0.0494071, 32:freq=1,power=0.0498236, 33:freq=1,power=0.0522428, 34:freq=1,power=0.0532759, 35:freq=1,power=0.0538062, 36:freq=1,power=0.0538941, 37:freq=1,power=0.0532381, 38:freq=1,power=0.052186, 39:freq=1,power=0.0502661, 40:freq=0.665289,power=0.0347024, 41:freq=1,power=0.0516507, 42:freq=1,power=0.0526958, 43:freq=1,power=0.0532529, 44:freq=1,power=0.0532928, 45:freq=1,power=0.0527031, 46:freq=1,power=0.0516421, 47:freq=1,power=0.0498685, 48:freq=0.669421,power=0.0333214, 49:freq=1,power=0.0495775, 50:freq=1,power=0.050627, 51:freq=1,power=0.0511576, 52:freq=1,power=0.051147, 53:freq=1,power=0.0505429, 54:freq=1,power=0.0494718, 55:freq=0.742424,power=0.0367097, 56:freq=0.677686,power=0.0312681, 57:freq=1,power=0.0461777, 58:freq=1,power=0.0469977, 59:freq=0.702479,power=0.0345069, 60:freq=1,power=0.0477863, 61:freq=0.707989,power=0.0349786, 62:freq=1,power=0.0472312, 63:freq=0.698347,power=0.0328799}
PERF_TARGET_DIFF: epoch=5 latency=3611 target=50 latency_ok=0 budget=0.5 headroom=-2.56918
Class 0:
Packet latency average = 1211.09
	minimum = 6
	maximum = 17139
Network latency average = 872.76
	minimum = 6
	maximum = 17135
Slowest packet = 971473
Flit latency average = 927.364
	minimum = 6
	maximum = 17135
Slowest flit = 971473
Fragmentation average = 0
	minimum = 0
	maximum = 0
Injected packet rate average = 0.117574
	minimum = 0.0717667 (at node 15)
	maximum = 0.158333 (at node 0)
Accepted packet rate average = 0.117438
	minimum = 0.112033 (at node 41)
	maximum = 0.1235 (at node 28)
Injected flit rate average = 0.117574
	minimum = 0.0717667 (at node 15)
	maximum = 0.158333 (at node 0)
Accepted flit rate average= 0.117438
	minimum = 0.112033 (at node 41)
	maximum = 0.1235 (at node 28)
Injected packet length average = 1
Accepted packet length average = 1
Total in-flight flits = 7852 (7852 measured)
Buffer busy stall rate = 1.76445
Buffer conflict stall rate = 1.65602
Buffer full stall rate = 3.13168
Buffer reserved stall rate = 3.63338
Crossbar conflict stall rate = 1.73421
Class 1:
Packet latency average = 4845.63
	minimum = 6
	maximum = 45861
Network latency average = 621.997
	minimum = 6
	maximum = 15977
Slowest packet = 677692
Flit latency average = 633.568
	minimum = 6
	maximum = 15977
Slowest flit = 979837
Fragmentation average = 0
	minimum = 0
	maximum = 0
Injected packet rate average = 0.232255
	minimum = 0 (at node 7)
	maximum = 0.3556 (at node 2)
Accepted packet rate average = 0.231929
	minimum = 0.2249 (at node 50)
	maximum = 0.239467 (at node 0)
Injected flit rate average = 0.232255
	minimum = 0 (at node 7)
	maximum = 0.3556 (at node 2)
Accepted flit rate average= 0.231929
	minimum = 0.2249 (at node 50)
	maximum = 0.239467 (at node 0)
Injected packet length average = 1
Accepted packet length average = 1
Total in-flight flits = 8562 (8561 measured)
Buffer busy stall rate = 1.76296
Buffer conflict stall rate = 2.35404
Buffer full stall rate = 2.84577
Buffer reserved stall rate = 6.57204
Crossbar conflict stall rate = 3.44302
latency change    = 0.0340667
throughput change = 0.0207424
latency change    = 0.060144
throughput change = 0.0294316
DVFS epoch t=60000 total_power=2.96724 headroom=-2.56724 avg_power=2.69313 domains{0:freq=1,power=2.96724} routers{0:freq=1,power=0.0469848, 1:freq=1,power=0.0481319, 2:freq=1,power=0.0491157, 3:freq=1,power=0.0494433, 4:freq=0.650115,power=0.0334914, 5:freq=0.690531,power=0.0346362, 6:freq=1,power=0.0475524, 7:freq=0.650115,power=0.0308745, 8:freq=1,power=0.049109, 9:freq=1,power=0.050377, 10:freq=1,power=0.051198, 11:freq=1,power=0.0515062, 12:freq=1,power=0.0509529, 13:freq=1,power=0.0498847, 14:freq=1,power=0.0487666, 15:freq=0.65127,power=0.0322542, 16:freq=1,power=0.050096, 17:freq=1,power=0.0515987, 18:freq=1,power=0.0523733, 19:freq=1,power=0.0527697, 20:freq=1,power=0.0524079, 21:freq=1,power=0.0515973, 22:freq=0.733256,power=0.0383404, 23:freq=1,power=0.0492486, 24:freq=1,power=0.0501884, 25:freq=1,power=0.051378, 26:freq=1,power=0.0524981, 27:freq=1,power=0.0531985, 28:freq=0.735566,power=0.0412396, 29:freq=1,power=0.0526959, 30:freq=1,power=0.0515264, 31:freq=1,power=0.0499052, 32:freq=1,power=0.0502173, 33:freq=0.689376,power=0.037303, 34:freq=0.677829,power=0.0378503, 35:freq=1,power=0.0529599, 36:freq=0.711316,power=0.0399208, 37:freq=0.732102,power=0.0404362, 38:freq=0.680139,power=0.0369606, 39:freq=1,power=0.0498971, 40:freq=1,power=0.0496743, 41:freq=0.579677,power=0.0316216, 42:freq=0.58776,power=0.0330177, 43:freq=0.662818,power=0.0369428, 44:freq=0.747113,power=0.0406014, 45:freq=0.710162,power=0.0384394, 46:freq=0.703233,power=0.0368595, 47:freq=1,power=0.0491336, 48:freq=1,power=0.0495315, 49:freq=1,power=0.0510665, 50:freq=1,power=0.0519522, 51:freq=1,power=0.052411, 52:freq=1,power=0.052197, 53:freq=1,power=0.0515254, 54:freq=1,power=0.050231, 55:freq=1,power=0.0485004, 56:freq=0.703233,power=0.0338025, 57:freq=1,power=0.0485053, 58:freq=1,power=0.0494346, 59:freq=1,power=0.0494828, 60:freq=1,power=0.0490009, 61:freq=1,power=0.0483195, 62:freq=1,power=0.0474669, 63:freq=1,power=0.0466332}
PERF_TARGET_DIFF: epoch=6 latency=6857 target=50 latency_ok=0 budget=0.5 headroom=-2.56724
Class 0:
Packet latency average = 1302.42
	minimum = 6
	maximum = 25627
Network latency average = 943.265
	minimum = 6
	maximum = 25597
Slowest packet = 990602
Flit latency average = 983.167
	minimum = 6
	maximum = 25597
Slowest flit = 990602
Fragmentation average = 0
	minimum = 0
	maximum = 0
Injected packet rate average = 0.115864
	minimum = 0.058425 (at node 15)
	maximum = 0.149375 (at node 0)
Accepted packet rate average = 0.115295
	minimum = 0.11215 (at node 41)
	maximum = 0.1204 (at node 28)
Injected flit rate average = 0.115864
	minimum = 0.058425 (at node 15)
	maximum = 0.149375 (at node 0)
Accepted flit rate average= 0.115295
	minimum = 0.11215 (at node 41)
	maximum = 0.1204 (at node 28)
Injected packet length average = 1
Accepted packet length average = 1
Total in-flight flits = 9056 (9056 measured)
Buffer busy stall rate = 2.02278
Buffer conflict stall rate = 1.66886
Buffer full stall rate = 3.4235
Buffer reserved stall rate = 3.55554
Crossbar conflict stall rate = 1.64826
Class 1:
Packet latency average = 5298.68
	minimum = 6
	maximum = 49057
Network latency average = 644.87
	minimum = 6
	maximum = 22937
Slowest packet = 677692
Flit latency average = 653.65
	minimum = 6
	maximum = 22937
Slowest flit = 965433
Fragmentation average = 0
	minimum = 0
	maximum = 0
Injected packet rate average = 0.22115
	minimum = 0 (at node 7)
	maximum = 0.34985 (at node 2)
Accepted packet rate average = 0.221176
	minimum = 0.215875 (at node 6)
	maximum = 0.22615 (at node 11)
Injected flit rate average = 0.22115
	minimum = 0 (at node 7)
	maximum = 0.34985 (at node 2)
Accepted flit rate average= 0.221176
	minimum = 0.215875 (at node 6)
	maximum = 0.22615 (at node 11)
Injected packet length average = 1
Accepted packet length average = 1
Total in-flight flits = 7885 (7884 measured)
Buffer busy stall rate = 1.89447
Buffer conflict stall rate = 2.26975
Buffer full stall rate = 2.96276
Buffer reserved stall rate = 6.1535
Crossbar conflict stall rate = 3.19822
latency change    = 0.0701275
throughput change = 0.0185869
latency change    = 0.0855026
throughput change = 0.0486168
Average latency for class 1 exceeded 5000 cycles. Aborting simulation.
Too many sample periods needed to converge
Simulation unstable, ending ...
Total run time 100.437
1.85573e-13
1.01182e-14
8.2655e-14
1.09233e-13
1.89983e-13
5.84568e-13
3.37458e-13
1.11201e-12
8.52002e-14
1.49959e-12
4.63932e-14
1.01182e-14
2.06637e-14
1.56046e-14
1.89983e-13
8.35097e-14
8.43644e-14
3.57857e-13
2.13e-14
4.50637e-13
2.31966e-14
1.01182e-14
3.3062e-13
4.83744e-13
1.89983e-13
2.5888e-12
1.34983e-12
4.12861e-12
3.40801e-13
4.97629e-12
2.8975e-11
4.1658e-11
1.85573e-13
1.01182e-14
8.2655e-14
1.09233e-13
1.89983e-13
5.84568e-13
3.37458e-13
1.11201e-12
8.52002e-14
1.49959e-12
4.63932e-14
1.01182e-14
2.06637e-14
1.56046e-14
1.89983e-13
8.35097e-14
8.43644e-14
3.57857e-13
2.13e-14
4.50637e-13
2.31966e-14
1.01182e-14
3.3062e-13
4.83744e-13
1.89983e-13
2.5888e-12
1.34983e-12
4.12861e-12
3.40801e-13
4.97629e-12
2.8975e-11
4.31393e-11
1.85573e-13
1.01182e-14
8.2655e-14
1.09233e-13
1.89983e-13
5.84568e-13
3.37458e-13
1.11201e-12
8.52002e-14
1.49959e-12
4.63932e-14
1.01182e-14
2.06637e-14
1.56046e-14
1.89983e-13
8.35097e-14
8.43644e-14
3.57857e-13
2.13e-14
4.50637e-13
2.31966e-14
1.01182e-14
3.3062e-13
4.83744e-13
1.89983e-13
2.5888e-12
1.34983e-12
4.12861e-12
3.40801e-13
4.97629e-12
2.8975e-11
4.40776e-11
1.85573e-13
1.01182e-14
8.2655e-14
1.09233e-13
1.89983e-13
5.84568e-13
3.37458e-13
1.11201e-12
8.52002e-14
1.49959e-12
4.63932e-14
1.01182e-14
2.06637e-14
1.56046e-14
1.89983e-13
8.35097e-14
8.43644e-14
3.57857e-13
2.13e-14
4.50637e-13
2.31966e-14
1.01182e-14
3.3062e-13
4.83744e-13
1.89983e-13
2.5888e-12
1.34983e-12
4.12861e-12
3.40801e-13
4.97629e-12
2.8975e-11
4.45662e-11
1.85573e-13
1.01182e-14
8.2655e-14
1.09233e-13
1.89983e-13
5.84568e-13
3.37458e-13
1.11201e-12
8.52002e-14
1.49959e-12
4.63932e-14
1.01182e-14
2.06637e-14
1.56046e-14
1.89983e-13
8.35097e-14
8.43644e-14
3.57857e-13
2.13e-14
4.50637e-13
2.31966e-14
1.01182e-14
3.3062e-13
4.83744e-13
1.89983e-13
2.5888e-12
1.34983e-12
4.12861e-12
3.40801e-13
4.97629e-12
2.8975e-11
4.45604e-11
1.85573e-13
1.01182e-14
8.2655e-14
1.09233e-13
1.89983e-13
5.84568e-13
3.37458e-13
1.11201e-12
8.52002e-14
1.49959e-12
4.63932e-14
1.01182e-14
2.06637e-14
1.56046e-14
1.89983e-13
8.35097e-14
8.43644e-14
3.57857e-13
2.13e-14
4.50637e-13
2.31966e-14
1.01182e-14
3.3062e-13
4.83744e-13
1.89983e-13
2.5888e-12
1.34983e-12
4.12861e-12
3.40801e-13
4.97629e-12
2.8975e-11
4.40785e-11
1.85573e-13
1.01182e-14
8.2655e-14
1.09233e-13
1.89983e-13
5.84568e-13
3.37458e-13
1.11201e-12
8.52002e-14
1.49959e-12
4.63932e-14
1.01182e-14
2.06637e-14
1.56046e-14
1.89983e-13
8.35097e-14
8.43644e-14
3.57857e-13
2.13e-14
4.50637e-13
2.31966e-14
1.01182e-14
3.3062e-13
4.83744e-13
1.89983e-13
2.5888e-12
1.34983e-12
4.12861e-12
3.40801e-13
4.97629e-12
2.8975e-11
4.30718e-11
1.85573e-13
1.01182e-14
8.2655e-14
1.09233e-13
1.89983e-13
5.84568e-13
3.37458e-13
1.11201e-12
8.52002e-14
1.49959e-12
4.63932e-14
1.01182e-14
2.06637e-14
1.56046e-14
1.89983e-13
8.35097e-14
8.43644e-14
3.57857e-13
2.13e-14
4.50637e-13
2.31966e-14
1.01182e-14
3.3062e-13
4.83744e-13
1.89983e-13
2.5888e-12
1.34983e-12
4.12861e-12
3.40801e-13
4.97629e-12
2.8975e-11
4.16457e-11
1.85573e-13
1.01182e-14
8.2655e-14
1.09233e-13
1.89983e-13
5.84568e-13
3.37458e-13
1.11201e-12
8.52002e-14
1.49959e-12
4.63932e-14
1.01182e-14
2.06637e-14
1.56046e-14
1.89983e-13
8.35097e-14
8.43644e-14
3.57857e-13
2.13e-14
4.50637e-13
2.31966e-14
1.01182e-14
3.3062e-13
4.83744e-13
1.89983e-13
2.5888e-12
1.34983e-12
4.12861e-12
3.40801e-13
4.97629e-12
2.8975e-11
4.31003e-11
1.85573e-13
1.01182e-14
8.2655e-14
1.09233e-13
1.89983e-13
5.84568e-13
3.37458e-13
1.11201e-12
8.52002e-14
1.49959e-12
4.63932e-14
1.01182e-14
2.06637e-14
1.56046e-14
1.89983e-13
8.35097e-14
8.43644e-14
3.57857e-13
2.13e-14
4.50637e-13
2.31966e-14
1.01182e-14
3.3062e-13
4.83744e-13
1.89983e-13
2.5888e-12
1.34983e-12
4.12861e-12
3.40801e-13
4.97629e-12
2.8975e-11
4.45871e-11
1.85573e-13
1.01182e-14
8.2655e-14
1.09233e-13
1.89983e-13
5.84568e-13
3.37458e-13
1.11201e-12
8.52002e-14
1.49959e-12
4.63932e-14
1.01182e-14
2.06637e-14
1.56046e-14
1.89983e-13
8.35097e-14
8.43644e-14
3.57857e-13
2.13e-14
4.50637e-13
2.31966e-14
1.01182e-14
3.3062e-13
4.83744e-13
1.89983e-13
2.5888e-12
1.34983e-12
4.12861e-12
3.40801e-13
4.97629e-12
2.8975e-11
4.55786e-11
1.85573e-13
1.01182e-14
8.2655e-14
1.09233e-13
1.89983e-13
5.84568e-13
3.37458e-13
1.11201e-12
8.52002e-14
1.49959e-12
4.63932e-14
1.01182e-14
2.06637e-14
1.56046e-14
1.89983e-13
8.35097e-14
8.43644e-14
3.57857e-13
2.13e-14
4.50637e-13
2.31966e-14
1.01182e-14
3.3062e-13
4.83744e-13
1.89983e-13
2.5888e-12
1.34983e-12
4.12861e-12
3.40801e-13
4.97629e-12
2.8975e-11
4.60693e-11
1.85573e-13
1.01182e-14
8.2655e-14
1.09233e-13
1.89983e-13
5.84568e-13
3.37458e-13
1.11201e-12
8.52002e-14
1.49959e-12
4.63932e-14
1.01182e-14
2.06637e-14
1.56046e-14
1.89983e-13
8.35097e-14
8.43644e-14
3.57857e-13
2.13e-14
4.50637e-13
2.31966e-14
1.01182e-14
3.3062e-13
4.83744e-13
1.89983e-13
2.5888e-12
1.34983e-12
4.12861e-12
3.40801e-13
4.97629e-12
2.8975e-11
4.60923e-11
1.85573e-13
1.01182e-14
8.2655e-14
1.09233e-13
1.89983e-13
5.84568e-13
3.37458e-13
1.11201e-12
8.52002e-14
1.49959e-12
4.63932e-14
1.01182e-14
2.06637e-14
1.56046e-14
1.89983e-13
8.35097e-14
8.43644e-14
3.57857e-13
2.13e-14
4.50637e-13
2.31966e-14
1.01182e-14
3.3062e-13
4.83744e-13
1.89983e-13
2.5888e-12
1.34983e-12
4.12861e-12
3.40801e-13
4.97629e-12
2.8975e-11
4.5552e-11
1.85573e-13
1.01182e-14
8.2655e-14
1.09233e-13
1.89983e-13
5.84568e-13
3.37458e-13
1.11201e-12
8.52002e-14
1.49959e-12
4.63932e-14
1.01182e-14
2.06637e-14
1.56046e-14
1.89983e-13
8.35097e-14
8.43644e-14
3.57857e-13
2.13e-14
4.50637e-13
2.31966e-14
1.01182e-14
3.3062e-13
4.83744e-13
1.89983e-13
2.5888e-12
1.34983e-12
4.12861e-12
3.40801e-13
4.97629e-12
2.8975e-11
4.46082e-11
1.85573e-13
1.01182e-14
8.2655e-14
1.09233e-13
1.89983e-13
5.84568e-13
3.37458e-13
1.11201e-12
8.52002e-14
1.49959e-12
4.63932e-14
1.01182e-14
2.06637e-14
1.56046e-14
1.89983e-13
8.35097e-14
8.43644e-14
3.57857e-13
2.13e-14
4.50637e-13
2.31966e-14
1.01182e-14
3.3062e-13
4.83744e-13
1.89983e-13
2.5888e-12
1.34983e-12
4.12861e-12
3.40801e-13
4.97629e-12
2.8975e-11
4.3149e-11
1.85573e-13
1.01182e-14
8.2655e-14
1.09233e-13
1.89983e-13
5.84568e-13
3.37458e-13
1.11201e-12
8.52002e-14
1.49959e-12
4.63932e-14
1.01182e-14
2.06637e-14
1.56046e-14
1.89983e-13
8.35097e-14
8.43644e-14
3.57857e-13
2.13e-14
4.50637e-13
2.31966e-14
1.01182e-14
3.3062e-13
4.83744e-13
1.89983e-13
2.5888e-12
1.34983e-12
4.12861e-12
3.40801e-13
4.97629e-12
2.8975e-11
4.40753e-11
1.85573e-13
1.01182e-14
8.2655e-14
1.09233e-13
1.89983e-13
5.84568e-13
3.37458e-13
1.11201e-12
8.52002e-14
1.49959e-12
4.63932e-14
1.01182e-14
2.06637e-14
1.56046e-14
1.89983e-13
8.35097e-14
8.43644e-14
3.57857e-13
2.13e-14
4.50637e-13
2.31966e-14
1.01182e-14
3.3062e-13
4.83744e-13
1.89983e-13
2.5888e-12
1.34983e-12
4.12861e-12
3.40801e-13
4.97629e-12
2.8975e-11
4.55405e-11
1.85573e-13
1.01182e-14
8.2655e-14
1.09233e-13
1.89983e-13
5.84568e-13
3.37458e-13
1.11201e-12
8.52002e-14
1.49959e-12
4.63932e-14
1.01182e-14
2.06637e-14
1.56046e-14
1.89983e-13
8.35097e-14
8.43644e-14
3.57857e-13
2.13e-14
4.50637e-13
2.31966e-14
1.01182e-14
3.3062e-13
4.83744e-13
1.89983e-13
2.5888e-12
1.34983e-12
4.12861e-12
3.40801e-13
4.97629e-12
2.8975e-11
4.65261e-11
1.85573e-13
1.01182e-14
8.2655e-14
1.09233e-13
1.89983e-13
5.84568e-13
3.37458e-13
1.11201e-12
8.52002e-14
1.49959e-12
4.63932e-14
1.01182e-14
2.06637e-14
1.56046e-14
1.89983e-13
8.35097e-14
8.43644e-14
3.57857e-13
2.13e-14
4.50637e-13
2.31966e-14
1.01182e-14
3.3062e-13
4.83744e-13
1.89983e-13
2.5888e-12
1.34983e-12
4.12861e-12
3.40801e-13
4.97629e-12
2.8975e-11
4.70099e-11
1.85573e-13
1.01182e-14
8.2655e-14
1.09233e-13
1.89983e-13
5.84568e-13
3.37458e-13
1.11201e-12
8.52002e-14
1.49959e-12
4.63932e-14
1.01182e-14
2.06637e-14
1.56046e-14
1.89983e-13
8.35097e-14
8.43644e-14
3.57857e-13
2.13e-14
4.50637e-13
2.31966e-14
1.01182e-14
3.3062e-13
4.83744e-13
1.89983e-13
2.5888e-12
1.34983e-12
4.12861e-12
3.40801e-13
4.97629e-12
2.8975e-11
4.70097e-11
1.85573e-13
1.01182e-14
8.2655e-14
1.09233e-13
1.89983e-13
5.84568e-13
3.37458e-13
1.11201e-12
8.52002e-14
1.49959e-12
4.63932e-14
1.01182e-14
2.06637e-14
1.56046e-14
1.89983e-13
8.35097e-14
8.43644e-14
3.57857e-13
2.13e-14
4.50637e-13
2.31966e-14
1.01182e-14
3.3062e-13
4.83744e-13
1.89983e-13
2.5888e-12
1.34983e-12
4.12861e-12
3.40801e-13
4.97629e-12
2.8975e-11
4.65076e-11
1.85573e-13
1.01182e-14
8.2655e-14
1.09233e-13
1.89983e-13
5.84568e-13
3.37458e-13
1.11201e-12
8.52002e-14
1.49959e-12
4.63932e-14
1.01182e-14
2.06637e-14
1.56046e-14
1.89983e-13
8.35097e-14
8.43644e-14
3.57857e-13
2.13e-14
4.50637e-13
2.31966e-14
1.01182e-14
3.3062e-13
4.83744e-13
1.89983e-13
2.5888e-12
1.34983e-12
4.12861e-12
3.40801e-13
4.97629e-12
2.8975e-11
4.5562e-11
1.85573e-13
1.01182e-14
8.2655e-14
1.09233e-13
1.89983e-13
5.84568e-13
3.37458e-13
1.11201e-12
8.52002e-14
1.49959e-12
4.63932e-14
1.01182e-14
2.06637e-14
1.56046e-14
1.89983e-13
8.35097e-14
8.43644e-14
3.57857e-13
2.13e-14
4.50637e-13
2.31966e-14
1.01182e-14
3.3062e-13
4.83744e-13
1.89983e-13
2.5888e-12
1.34983e-12
4.12861e-12
3.40801e-13
4.97629e-12
2.8975e-11
4.40937e-11
1.85573e-13
1.01182e-14
8.2655e-14
1.09233e-13
1.89983e-13
5.84568e-13
3.37458e-13
1.11201e-12
8.52002e-14
1.49959e-12
4.63932e-14
1.01182e-14
2.06637e-14
1.56046e-14
1.89983e-13
8.35097e-14
8.43644e-14
3.57857e-13
2.13e-14
4.50637e-13
2.31966e-14
1.01182e-14
3.3062e-13
4.83744e-13
1.89983e-13
2.5888e-12
1.34983e-12
4.12861e-12
3.40801e-13
4.97629e-12
2.8975e-11
4.45806e-11
1.85573e-13
1.01182e-14
8.2655e-14
1.09233e-13
1.89983e-13
5.84568e-13
3.37458e-13
1.11201e-12
8.52002e-14
1.49959e-12
4.63932e-14
1.01182e-14
2.06637e-14
1.56046e-14
1.89983e-13
8.35097e-14
8.43644e-14
3.57857e-13
2.13e-14
4.50637e-13
2.31966e-14
1.01182e-14
3.3062e-13
4.83744e-13
1.89983e-13
2.5888e-12
1.34983e-12
4.12861e-12
3.40801e-13
4.97629e-12
2.8975e-11
4.60045e-11
1.85573e-13
1.01182e-14
8.2655e-14
1.09233e-13
1.89983e-13
5.84568e-13
3.37458e-13
1.11201e-12
8.52002e-14
1.49959e-12
4.63932e-14
1.01182e-14
2.06637e-14
1.56046e-14
1.89983e-13
8.35097e-14
8.43644e-14
3.57857e-13
2.13e-14
4.50637e-13
2.31966e-14
1.01182e-14
3.3062e-13
4.83744e-13
1.89983e-13
2.5888e-12
1.34983e-12
4.12861e-12
3.40801e-13
4.97629e-12
2.8975e-11
4.69641e-11
1.85573e-13
1.01182e-14
8.2655e-14
1.09233e-13
1.89983e-13
5.84568e-13
3.37458e-13
1.11201e-12
8.52002e-14
1.49959e-12
4.63932e-14
1.01182e-14
2.06637e-14
1.56046e-14
1.89983e-13
8.35097e-14
8.43644e-14
3.57857e-13
2.13e-14
4.50637e-13
2.31966e-14
1.01182e-14
3.3062e-13
4.83744e-13
1.89983e-13
2.5888e-12
1.34983e-12
4.12861e-12
3.40801e-13
4.97629e-12
2.8975e-11
4.74506e-11
1.85573e-13
1.01182e-14
8.2655e-14
1.09233e-13
1.89983e-13
5.84568e-13
3.37458e-13
1.11201e-12
8.52002e-14
1.49959e-12
4.63932e-14
1.01182e-14
2.06637e-14
1.56046e-14
1.89983e-13
8.35097e-14
8.43644e-14
3.57857e-13
2.13e-14
4.50637e-13
2.31966e-14
1.01182e-14
3.3062e-13
4.83744e-13
1.89983e-13
2.5888e-12
1.34983e-12
4.12861e-12
3.40801e-13
4.97629e-12
2.8975e-11
4.74492e-11
1.85573e-13
1.01182e-14
8.2655e-14
1.09233e-13
1.89983e-13
5.84568e-13
3.37458e-13
1.11201e-12
8.52002e-14
1.49959e-12
4.63932e-14
1.01182e-14
2.06637e-14
1.56046e-14
1.89983e-13
8.35097e-14
8.43644e-14
3.57857e-13
2.13e-14
4.50637e-13
2.31966e-14
1.01182e-14
3.3062e-13
4.83744e-13
1.89983e-13
2.5888e-12
1.34983e-12
4.12861e-12
3.40801e-13
4.97629e-12
2.8975e-11
4.69527e-11
1.85573e-13
1.01182e-14
8.2655e-14
1.09233e-13
1.89983e-13
5.84568e-13
3.37458e-13
1.11201e-12
8.52002e-14
1.49959e-12
4.63932e-14
1.01182e-14
2.06637e-14
1.56046e-14
1.89983e-13
8.35097e-14
8.43644e-14
3.57857e-13
2.13e-14
4.50637e-13
2.31966e-14
1.01182e-14
3.3062e-13
4.83744e-13
1.89983e-13
2.5888e-12
1.34983e-12
4.12861e-12
3.40801e-13
4.97629e-12
2.8975e-11
4.60223e-11
1.85573e-13
1.01182e-14
8.2655e-14
1.09233e-13
1.89983e-13
5.84568e-13
3.37458e-13
1.11201e-12
8.52002e-14
1.49959e-12
4.63932e-14
1.01182e-14
2.06637e-14
1.56046e-14
1.89983e-13
8.35097e-14
8.43644e-14
3.57857e-13
2.13e-14
4.50637e-13
2.31966e-14
1.01182e-14
3.3062e-13
4.83744e-13
1.89983e-13
2.5888e-12
1.34983e-12
4.12861e-12
3.40801e-13
4.97629e-12
2.8975e-11
4.45752e-11
1.85573e-13
1.01182e-14
8.2655e-14
1.09233e-13
1.89983e-13
5.84568e-13
3.37458e-13
1.11201e-12
8.52002e-14
1.49959e-12
4.63932e-14
1.01182e-14
2.06637e-14
1.56046e-14
1.89983e-13
8.35097e-14
8.43644e-14
3.57857e-13
2.13e-14
4.50637e-13
2.31966e-14
1.01182e-14
3.3062e-13
4.83744e-13
1.89983e-13
2.5888e-12
1.34983e-12
4.12861e-12
3.40801e-13
4.97629e-12
2.8975e-11
4.45847e-11
1.85573e-13
1.01182e-14
8.2655e-14
1.09233e-13
1.89983e-13
5.84568e-13
3.37458e-13
1.11201e-12
8.52002e-14
1.49959e-12
4.63932e-14
1.01182e-14
2.06637e-14
1.56046e-14
1.89983e-13
8.35097e-14
8.43644e-14
3.57857e-13
2.13e-14
4.50637e-13
2.31966e-14
1.01182e-14
3.3062e-13
4.83744e-13
1.89983e-13
2.5888e-12
1.34983e-12
4.12861e-12
3.40801e-13
4.97629e-12
2.8975e-11
4.60247e-11
1.85573e-13
1.01182e-14
8.2655e-14
1.09233e-13
1.89983e-13
5.84568e-13
3.37458e-13
1.11201e-12
8.52002e-14
1.49959e-12
4.63932e-14
1.01182e-14
2.06637e-14
1.56046e-14
1.89983e-13
8.35097e-14
8.43644e-14
3.57857e-13
2.13e-14
4.50637e-13
2.31966e-14
1.01182e-14
3.3062e-13
4.83744e-13
1.89983e-13
2.5888e-12
1.34983e-12
4.12861e-12
3.40801e-13
4.97629e-12
2.8975e-11
4.69705e-11
1.85573e-13
1.01182e-14
8.2655e-14
1.09233e-13
1.89983e-13
5.84568e-13
3.37458e-13
1.11201e-12
8.52002e-14
1.49959e-12
4.63932e-14
1.01182e-14
2.06637e-14
1.56046e-14
1.89983e-13
8.35097e-14
8.43644e-14
3.57857e-13
2.13e-14
4.50637e-13
2.31966e-14
1.01182e-14
3.3062e-13
4.83744e-13
1.89983e-13
2.5888e-12
1.34983e-12
4.12861e-12
3.40801e-13
4.97629e-12
2.8975e-11
4.75186e-11
1.85573e-13
1.01182e-14
8.2655e-14
1.09233e-13
1.89983e-13
5.84568e-13
3.37458e-13
1.11201e-12
8.52002e-14
1.49959e-12
4.63932e-14
1.01182e-14
2.06637e-14
1.56046e-14
1.89983e-13
8.35097e-14
8.43644e-14
3.57857e-13
2.13e-14
4.50637e-13
2.31966e-14
1.01182e-14
3.3062e-13
4.83744e-13
1.89983e-13
2.5888e-12
1.34983e-12
4.12861e-12
3.40801e-13
4.97629e-12
2.8975e-11
4.75164e-11
1.85573e-13
1.01182e-14
8.2655e-14
1.09233e-13
1.89983e-13
5.84568e-13
3.37458e-13
1.11201e-12
8.52002e-14
1.49959e-12
4.63932e-14
1.01182e-14
2.06637e-14
1.56046e-14
1.89983e-13
8.35097e-14
8.43644e-14
3.57857e-13
2.13e-14
4.50637e-13
2.31966e-14
1.01182e-14
3.3062e-13
4.83744e-13
1.89983e-13
2.5888e-12
1.34983e-12
4.12861e-12
3.40801e-13
4.97629e-12
2.8975e-11
4.69834e-11
1.85573e-13
1.01182e-14
8.2655e-14
1.09233e-13
1.89983e-13
5.84568e-13
3.37458e-13
1.11201e-12
8.52002e-14
1.49959e-12
4.63932e-14
1.01182e-14
2.06637e-14
1.56046e-14
1.89983e-13
8.35097e-14
8.43644e-14
3.57857e-13
2.13e-14
4.50637e-13
2.31966e-14
1.01182e-14
3.3062e-13
4.83744e-13
1.89983e-13
2.5888e-12
1.34983e-12
4.12861e-12
3.40801e-13
4.97629e-12
2.8975e-11
4.60389e-11
1.85573e-13
1.01182e-14
8.2655e-14
1.09233e-13
1.89983e-13
5.84568e-13
3.37458e-13
1.11201e-12
8.52002e-14
1.49959e-12
4.63932e-14
1.01182e-14
2.06637e-14
1.56046e-14
1.89983e-13
8.35097e-14
8.43644e-14
3.57857e-13
2.13e-14
4.50637e-13
2.31966e-14
1.01182e-14
3.3062e-13
4.83744e-13
1.89983e-13
2.5888e-12
1.34983e-12
4.12861e-12
3.40801e-13
4.97629e-12
2.8975e-11
4.45686e-11
1.85573e-13
1.01182e-14
8.2655e-14
1.09233e-13
1.89983e-13
5.84568e-13
3.37458e-13
1.11201e-12
8.52002e-14
1.49959e-12
4.63932e-14
1.01182e-14
2.06637e-14
1.56046e-14
1.89983e-13
8.35097e-14
8.43644e-14
3.57857e-13
2.13e-14
4.50637e-13
2.31966e-14
1.01182e-14
3.3062e-13
4.83744e-13
1.89983e-13
2.5888e-12
1.34983e-12
4.12861e-12
3.40801e-13
4.97629e-12
2.8975e-11
4.41154e-11
1.85573e-13
1.01182e-14
8.2655e-14
1.09233e-13
1.89983e-13
5.84568e-13
3.37458e-13
1.11201e-12
8.52002e-14
1.49959e-12
4.63932e-14
1.01182e-14
2.06637e-14
1.56046e-14
1.89983e-13
8.35097e-14
8.43644e-14
3.57857e-13
2.13e-14
4.50637e-13
2.31966e-14
1.01182e-14
3.3062e-13
4.83744e-13
1.89983e-13
2.5888e-12
1.34983e-12
4.12861e-12
3.40801e-13
4.97629e-12
2.8975e-11
4.55911e-11
1.85573e-13
1.01182e-14
8.2655e-14
1.09233e-13
1.89983e-13
5.84568e-13
3.37458e-13
1.11201e-12
8.52002e-14
1.49959e-12
4.63932e-14
1.01182e-14
2.06637e-14
1.56046e-14
1.89983e-13
8.35097e-14
8.43644e-14
3.57857e-13
2.13e-14
4.50637e-13
2.31966e-14
1.01182e-14
3.3062e-13
4.83744e-13
1.89983e-13
2.5888e-12
1.34983e-12
4.12861e-12
3.40801e-13
4.97629e-12
2.8975e-11
4.65721e-11
1.85573e-13
1.01182e-14
8.2655e-14
1.09233e-13
1.89983e-13
5.84568e-13
3.37458e-13
1.11201e-12
8.52002e-14
1.49959e-12
4.63932e-14
1.01182e-14
2.06637e-14
1.56046e-14
1.89983e-13
8.35097e-14
8.43644e-14
3.57857e-13
2.13e-14
4.50637e-13
2.31966e-14
1.01182e-14
3.3062e-13
4.83744e-13
1.89983e-13
2.5888e-12
1.34983e-12
4.12861e-12
3.40801e-13
4.97629e-12
2.8975e-11
4.70704e-11
1.85573e-13
1.01182e-14
8.2655e-14
1.09233e-13
1.89983e-13
5.84568e-13
3.37458e-13
1.11201e-12
8.52002e-14
1.49959e-12
4.63932e-14
1.01182e-14
2.06637e-14
1.56046e-14
1.89983e-13
8.35097e-14
8.43644e-14
3.57857e-13
2.13e-14
4.50637e-13
2.31966e-14
1.01182e-14
3.3062e-13
4.83744e-13
1.89983e-13
2.5888e-12
1.34983e-12
4.12861e-12
3.40801e-13
4.97629e-12
2.8975e-11
4.70193e-11
1.85573e-13
1.01182e-14
8.2655e-14
1.09233e-13
1.89983e-13
5.84568e-13
3.37458e-13
1.11201e-12
8.52002e-14
1.49959e-12
4.63932e-14
1.01182e-14
2.06637e-14
1.56046e-14
1.89983e-13
8.35097e-14
8.43644e-14
3.57857e-13
2.13e-14
4.50637e-13
2.31966e-14
1.01182e-14
3.3062e-13
4.83744e-13
1.89983e-13
2.5888e-12
1.34983e-12
4.12861e-12
3.40801e-13
4.97629e-12
2.8975e-11
4.65053e-11
1.85573e-13
1.01182e-14
8.2655e-14
1.09233e-13
1.89983e-13
5.84568e-13
3.37458e-13
1.11201e-12
8.52002e-14
1.49959e-12
4.63932e-14
1.01182e-14
2.06637e-14
1.56046e-14
1.89983e-13
8.35097e-14
8.43644e-14
3.57857e-13
2.13e-14
4.50637e-13
2.31966e-14
1.01182e-14
3.3062e-13
4.83744e-13
1.89983e-13
2.5888e-12
1.34983e-12
4.12861e-12
3.40801e-13
4.97629e-12
2.8975e-11
4.55711e-11
1.85573e-13
1.01182e-14
8.2655e-14
1.09233e-13
1.89983e-13
5.84568e-13
3.37458e-13
1.11201e-12
8.52002e-14
1.49959e-12
4.63932e-14
1.01182e-14
2.06637e-14
1.56046e-14
1.89983e-13
8.35097e-14
8.43644e-14
3.57857e-13
2.13e-14
4.50637e-13
2.31966e-14
1.01182e-14
3.3062e-13
4.83744e-13
1.89983e-13
2.5888e-12
1.34983e-12
4.12861e-12
3.40801e-13
4.97629e-12
2.8975e-11
4.41047e-11
1.85573e-13
1.01182e-14
8.2655e-14
1.09233e-13
1.89983e-13
5.84568e-13
3.37458e-13
1.11201e-12
8.52002e-14
1.49959e-12
4.63932e-14
1.01182e-14
2.06637e-14
1.56046e-14
1.89983e-13
8.35097e-14
8.43644e-14
3.57857e-13
2.13e-14
4.50637e-13
2.31966e-14
1.01182e-14
3.3062e-13
4.83744e-13
1.89983e-13
2.5888e-12
1.34983e-12
4.12861e-12
3.40801e-13
4.97629e-12
2.8975e-11
4.31172e-11
1.85573e-13
1.01182e-14
8.2655e-14
1.09233e-13
1.89983e-13
5.84568e-13
3.37458e-13
1.11201e-12
8.52002e-14
1.49959e-12
4.63932e-14
1.01182e-14
2.06637e-14
1.56046e-14
1.89983e-13
8.35097e-14
8.43644e-14
3.57857e-13
2.13e-14
4.50637e-13
2.31966e-14
1.01182e-14
3.3062e-13
4.83744e-13
1.89983e-13
2.5888e-12
1.34983e-12
4.12861e-12
3.40801e-13
4.97629e-12
2.8975e-11
4.45902e-11
1.85573e-13
1.01182e-14
8.2655e-14
1.09233e-13
1.89983e-13
5.84568e-13
3.37458e-13
1.11201e-12
8.52002e-14
1.49959e-12
4.63932e-14
1.01182e-14
2.06637e-14
1.56046e-14
1.89983e-13
8.35097e-14
8.43644e-14
3.57857e-13
2.13e-14
4.50637e-13
2.31966e-14
1.01182e-14
3.3062e-13
4.83744e-13
1.89983e-13
2.5888e-12
1.34983e-12
4.12861e-12
3.40801e-13
4.97629e-12
2.8975e-11
4.55459e-11
1.85573e-13
1.01182e-14
8.2655e-14
1.09233e-13
1.89983e-13
5.84568e-13
3.37458e-13
1.11201e-12
8.52002e-14
1.49959e-12
4.63932e-14
1.01182e-14
2.06637e-14
1.56046e-14
1.89983e-13
8.35097e-14
8.43644e-14
3.57857e-13
2.13e-14
4.50637e-13
2.31966e-14
1.01182e-14
3.3062e-13
4.83744e-13
1.89983e-13
2.5888e-12
1.34983e-12
4.12861e-12
3.40801e-13
4.97629e-12
2.8975e-11
4.60056e-11
1.85573e-13
1.01182e-14
8.2655e-14
1.09233e-13
1.89983e-13
5.84568e-13
3.37458e-13
1.11201e-12
8.52002e-14
1.49959e-12
4.63932e-14
1.01182e-14
2.06637e-14
1.56046e-14
1.89983e-13
8.35097e-14
8.43644e-14
3.57857e-13
2.13e-14
4.50637e-13
2.31966e-14
1.01182e-14
3.3062e-13
4.83744e-13
1.89983e-13
2.5888e-12
1.34983e-12
4.12861e-12
3.40801e-13
4.97629e-12
2.8975e-11
4.59772e-11
1.85573e-13
1.01182e-14
8.2655e-14
1.09233e-13
1.89983e-13
5.84568e-13
3.37458e-13
1.11201e-12
8.52002e-14
1.49959e-12
4.63932e-14
1.01182e-14
2.06637e-14
1.56046e-14
1.89983e-13
8.35097e-14
8.43644e-14
3.57857e-13
2.13e-14
4.50637e-13
2.31966e-14
1.01182e-14
3.3062e-13
4.83744e-13
1.89983e-13
2.5888e-12
1.34983e-12
4.12861e-12
3.40801e-13
4.97629e-12
2.8975e-11
4.55178e-11
1.85573e-13
1.01182e-14
8.2655e-14
1.09233e-13
1.89983e-13
5.84568e-13
3.37458e-13
1.11201e-12
8.52002e-14
1.49959e-12
4.63932e-14
1.01182e-14
2.06637e-14
1.56046e-14
1.89983e-13
8.35097e-14
8.43644e-14
3.57857e-13
2.13e-14
4.50637e-13
2.31966e-14
1.01182e-14
3.3062e-13
4.83744e-13
1.89983e-13
2.5888e-12
1.34983e-12
4.12861e-12
3.40801e-13
4.97629e-12
2.8975e-11
4.45994e-11
1.85573e-13
1.01182e-14
8.2655e-14
1.09233e-13
1.89983e-13
5.84568e-13
3.37458e-13
1.11201e-12
8.52002e-14
1.49959e-12
4.63932e-14
1.01182e-14
2.06637e-14
1.56046e-14
1.89983e-13
8.35097e-14
8.43644e-14
3.57857e-13
2.13e-14
4.50637e-13
2.31966e-14
1.01182e-14
3.3062e-13
4.83744e-13
1.89983e-13
2.5888e-12
1.34983e-12
4.12861e-12
3.40801e-13
4.97629e-12
2.8975e-11
4.31129e-11
1.85573e-13
1.01182e-14
8.2655e-14
1.09233e-13
1.89983e-13
5.84568e-13
3.37458e-13
1.11201e-12
8.52002e-14
1.49959e-12
4.63932e-14
1.01182e-14
2.06637e-14
1.56046e-14
1.89983e-13
8.35097e-14
8.43644e-14
3.57857e-13
2.13e-14
4.50637e-13
2.31966e-14
1.01182e-14
3.3062e-13
4.83744e-13
1.89983e-13
2.5888e-12
1.34983e-12
4.12861e-12
3.40801e-13
4.97629e-12
2.8975e-11
4.16901e-11
1.85573e-13
1.01182e-14
8.2655e-14
1.09233e-13
1.89983e-13
5.84568e-13
3.37458e-13
1.11201e-12
8.52002e-14
1.49959e-12
4.63932e-14
1.01182e-14
2.06637e-14
1.56046e-14
1.89983e-13
8.35097e-14
8.43644e-14
3.57857e-13
2.13e-14
4.50637e-13
2.31966e-14
1.01182e-14
3.3062e-13
4.83744e-13
1.89983e-13
2.5888e-12
1.34983e-12
4.12861e-12
3.40801e-13
4.97629e-12
2.8975e-11
4.31748e-11
1.85573e-13
1.01182e-14
8.2655e-14
1.09233e-13
1.89983e-13
5.84568e-13
3.37458e-13
1.11201e-12
8.52002e-14
1.49959e-12
4.63932e-14
1.01182e-14
2.06637e-14
1.56046e-14
1.89983e-13
8.35097e-14
8.43644e-14
3.57857e-13
2.13e-14
4.50637e-13
2.31966e-14
1.01182e-14
3.3062e-13
4.83744e-13
1.89983e-13
2.5888e-12
1.34983e-12
4.12861e-12
3.40801e-13
4.97629e-12
2.8975e-11
4.41398e-11
1.85573e-13
1.01182e-14
8.2655e-14
1.09233e-13
1.89983e-13
5.84568e-13
3.37458e-13
1.11201e-12
8.52002e-14
1.49959e-12
4.63932e-14
1.01182e-14
2.06637e-14
1.56046e-14
1.89983e-13
8.35097e-14
8.43644e-14
3.57857e-13
2.13e-14
4.50637e-13
2.31966e-14
1.01182e-14
3.3062e-13
4.83744e-13
1.89983e-13
2.5888e-12
1.34983e-12
4.12861e-12
3.40801e-13
4.97629e-12
2.8975e-11
4.46274e-11
1.85573e-13
1.01182e-14
8.2655e-14
1.09233e-13
1.89983e-13
5.84568e-13
3.37458e-13
1.11201e-12
8.52002e-14
1.49959e-12
4.63932e-14
1.01182e-14
2.06637e-14
1.56046e-14
1.89983e-13
8.35097e-14
8.43644e-14
3.57857e-13
2.13e-14
4.50637e-13
2.31966e-14
1.01182e-14
3.3062e-13
4.83744e-13
1.89983e-13
2.5888e-12
1.34983e-12
4.12861e-12
3.40801e-13
4.97629e-12
2.8975e-11
4.46416e-11
1.85573e-13
1.01182e-14
8.2655e-14
1.09233e-13
1.89983e-13
5.84568e-13
3.37458e-13
1.11201e-12
8.52002e-14
1.49959e-12
4.63932e-14
1.01182e-14
2.06637e-14
1.56046e-14
1.89983e-13
8.35097e-14
8.43644e-14
3.57857e-13
2.13e-14
4.50637e-13
2.31966e-14
1.01182e-14
3.3062e-13
4.83744e-13
1.89983e-13
2.5888e-12
1.34983e-12
4.12861e-12
3.40801e-13
4.97629e-12
2.8975e-11
4.41244e-11
1.85573e-13
1.01182e-14
8.2655e-14
1.09233e-13
1.89983e-13
5.84568e-13
3.37458e-13
1.11201e-12
8.52002e-14
1.49959e-12
4.63932e-14
1.01182e-14
2.06637e-14
1.56046e-14
1.89983e-13
8.35097e-14
8.43644e-14
3.57857e-13
2.13e-14
4.50637e-13
2.31966e-14
1.01182e-14
3.3062e-13
4.83744e-13
1.89983e-13
2.5888e-12
1.34983e-12
4.12861e-12
3.40801e-13
4.97629e-12
2.8975e-11
4.31445e-11
1.85573e-13
1.01182e-14
8.2655e-14
1.09233e-13
1.89983e-13
5.84568e-13
3.37458e-13
1.11201e-12
8.52002e-14
1.49959e-12
4.63932e-14
1.01182e-14
2.06637e-14
1.56046e-14
1.89983e-13
8.35097e-14
8.43644e-14
3.57857e-13
2.13e-14
4.50637e-13
2.31966e-14
1.01182e-14
3.3062e-13
4.83744e-13
1.89983e-13
2.5888e-12
1.34983e-12
4.12861e-12
3.40801e-13
4.97629e-12
2.8975e-11
4.16653e-11
1.85573e-13
1.01182e-14
8.2655e-14
1.09233e-13
1.89983e-13
5.84568e-13
3.37458e-13
1.11201e-12
8.52002e-14
1.49959e-12
4.63932e-14
1.01182e-14
2.06637e-14
1.56046e-14
1.89983e-13
8.35097e-14
8.43644e-14
3.57857e-13
2.13e-14
4.50637e-13
2.31966e-14
1.01182e-14
3.3062e-13
4.83744e-13
1.89983e-13
2.5888e-12
1.34983e-12
4.12861e-12
3.40801e-13
4.97629e-12
3.01535e-11
4.30749e-11
1.85573e-13
1.01182e-14
8.2655e-14
1.09233e-13
1.89983e-13
5.84568e-13
3.37458e-13
1.11201e-12
8.52002e-14
1.49959e-12
4.63932e-14
1.01182e-14
2.06637e-14
1.56046e-14
1.89983e-13
8.35097e-14
8.43644e-14
3.57857e-13
2.13e-14
4.50637e-13
2.31966e-14
1.01182e-14
3.3062e-13
4.83744e-13
1.89983e-13
2.5888e-12
1.34983e-12
4.12861e-12
3.40801e-13
4.97629e-12
3.01535e-11
4.39925e-11
1.85573e-13
1.01182e-14
8.2655e-14
1.09233e-13
1.89983e-13
5.84568e-13
3.37458e-13
1.11201e-12
8.52002e-14
1.49959e-12
4.63932e-14
1.01182e-14
2.06637e-14
1.56046e-14
1.89983e-13
8.35097e-14
8.43644e-14
3.57857e-13
2.13e-14
4.50637e-13
2.31966e-14
1.01182e-14
3.3062e-13
4.83744e-13
1.89983e-13
2.5888e-12
1.34983e-12
4.12861e-12
3.40801e-13
4.97629e-12
3.01535e-11
4.53677e-11
1.85573e-13
1.01182e-14
8.2655e-14
1.09233e-13
1.89983e-13
5.84568e-13
3.37458e-13
1.11201e-12
8.52002e-14
1.49959e-12
4.63932e-14
1.01182e-14
2.06637e-14
1.56046e-14
1.89983e-13
8.35097e-14
8.43644e-14
3.57857e-13
2.13e-14
4.50637e-13
2.31966e-14
1.01182e-14
3.3062e-13
4.83744e-13
1.89983e-13
2.5888e-12
1.34983e-12
4.12861e-12
3.40801e-13
4.97629e-12
3.01535e-11
4.38291e-11
1.85573e-13
1.01182e-14
8.2655e-14
1.09233e-13
1.89983e-13
5.84568e-13
3.37458e-13
1.11201e-12
8.52002e-14
1.49959e-12
4.63932e-14
1.01182e-14
2.06637e-14
1.56046e-14
1.89983e-13
8.35097e-14
8.43644e-14
3.57857e-13
2.13e-14
4.50637e-13
2.31966e-14
1.01182e-14
3.3062e-13
4.83744e-13
1.89983e-13
2.5888e-12
1.34983e-12
4.12861e-12
3.40801e-13
4.97629e-12
3.01535e-11
4.56685e-11
1.85573e-13
1.01182e-14
8.2655e-14
1.09233e-13
1.89983e-13
5.84568e-13
3.37458e-13
1.11201e-12
8.52002e-14
1.49959e-12
4.63932e-14
1.01182e-14
2.06637e-14
1.56046e-14
1.89983e-13
8.35097e-14
8.43644e-14
3.57857e-13
2.13e-14
4.50637e-13
2.31966e-14
1.01182e-14
3.3062e-13
4.83744e-13
1.89983e-13
2.5888e-12
1.34983e-12
4.12861e-12
3.40801e-13
4.97629e-12
3.01535e-11
4.63744e-11
1.85573e-13
1.01182e-14
8.2655e-14
1.09233e-13
1.89983e-13
5.84568e-13
3.37458e-13
1.11201e-12
8.52002e-14
1.49959e-12
4.63932e-14
1.01182e-14
2.06637e-14
1.56046e-14
1.89983e-13
8.35097e-14
8.43644e-14
3.57857e-13
2.13e-14
4.50637e-13
2.31966e-14
1.01182e-14
3.3062e-13
4.83744e-13
1.89983e-13
2.5888e-12
1.34983e-12
4.12861e-12
3.40801e-13
4.97629e-12
3.01535e-11
4.49514e-11
1.85573e-13
1.01182e-14
8.2655e-14
1.09233e-13
1.89983e-13
5.84568e-13
3.37458e-13
1.11201e-12
8.52002e-14
1.49959e-12
4.63932e-14
1.01182e-14
2.06637e-14
1.56046e-14
1.89983e-13
8.35097e-14
8.43644e-14
3.57857e-13
2.13e-14
4.50637e-13
2.31966e-14
1.01182e-14
3.3062e-13
4.83744e-13
1.89983e-13
2.5888e-12
1.34983e-12
4.12861e-12
3.40801e-13
4.97629e-12
3.01535e-11
4.30969e-11
1.85573e-13
1.01182e-14
8.2655e-14
1.09233e-13
1.89983e-13
5.84568e-13
3.37458e-13
1.11201e-12
8.52002e-14
1.49959e-12
4.63932e-14
1.01182e-14
2.06637e-14
1.56046e-14
1.89983e-13
8.35097e-14
8.43644e-14
3.57857e-13
2.13e-14
4.50637e-13
2.31966e-14
1.01182e-14
3.3062e-13
4.83744e-13
1.89983e-13
2.5888e-12
1.34983e-12
4.12861e-12
3.40801e-13
4.97629e-12
3.01535e-11
4.49002e-11
1.85573e-13
1.01182e-14
8.2655e-14
1.09233e-13
1.89983e-13
5.84568e-13
3.37458e-13
1.11201e-12
8.52002e-14
1.49959e-12
4.63932e-14
1.01182e-14
2.06637e-14
1.56046e-14
1.89983e-13
8.35097e-14
8.43644e-14
3.57857e-13
2.13e-14
4.50637e-13
2.31966e-14
1.01182e-14
3.3062e-13
4.83744e-13
1.89983e-13
2.5888e-12
1.34983e-12
4.12861e-12
3.40801e-13
4.97629e-12
3.01535e-11
4.53516e-11
1.85573e-13
1.01182e-14
8.2655e-14
1.09233e-13
1.89983e-13
5.84568e-13
3.37458e-13
1.11201e-12
8.52002e-14
1.49959e-12
4.63932e-14
1.01182e-14
2.06637e-14
1.56046e-14
1.89983e-13
8.35097e-14
8.43644e-14
3.57857e-13
2.13e-14
4.50637e-13
2.31966e-14
1.01182e-14
3.3062e-13
4.83744e-13
1.89983e-13
2.5888e-12
1.34983e-12
4.12861e-12
3.40801e-13
4.97629e-12
3.01535e-11
4.72287e-11
1.85573e-13
1.01182e-14
8.2655e-14
1.09233e-13
1.89983e-13
5.84568e-13
3.37458e-13
1.11201e-12
8.52002e-14
1.49959e-12
4.63932e-14
1.01182e-14
2.06637e-14
1.56046e-14
1.89983e-13
8.35097e-14
8.43644e-14
3.57857e-13
2.13e-14
4.50637e-13
2.31966e-14
1.01182e-14
3.3062e-13
4.83744e-13
1.89983e-13
2.5888e-12
1.34983e-12
4.12861e-12
3.40801e-13
4.97629e-12
3.01535e-11
4.88401e-11
1.85573e-13
1.01182e-14
8.2655e-14
1.09233e-13
1.89983e-13
5.84568e-13
3.37458e-13
1.11201e-12
8.52002e-14
1.49959e-12
4.63932e-14
1.01182e-14
2.06637e-14
1.56046e-14
1.89983e-13
8.35097e-14
8.43644e-14
3.57857e-13
2.13e-14
4.50637e-13
2.31966e-14
1.01182e-14
3.3062e-13
4.83744e-13
1.89983e-13
2.5888e-12
1.34983e-12
4.12861e-12
3.40801e-13
4.97629e-12
3.01535e-11
4.77114e-11
1.85573e-13
1.01182e-14
8.2655e-14
1.09233e-13
1.89983e-13
5.84568e-13
3.37458e-13
1.11201e-12
8.52002e-14
1.49959e-12
4.63932e-14
1.01182e-14
2.06637e-14
1.56046e-14
1.89983e-13
8.35097e-14
8.43644e-14
3.57857e-13
2.13e-14
4.50637e-13
2.31966e-14
1.01182e-14
3.3062e-13
4.83744e-13
1.89983e-13
2.5888e-12
1.34983e-12
4.12861e-12
3.40801e-13
4.97629e-12
3.01535e-11
4.46139e-11
1.85573e-13
1.01182e-14
8.2655e-14
1.09233e-13
1.89983e-13
5.84568e-13
3.37458e-13
1.11201e-12
8.52002e-14
1.49959e-12
4.63932e-14
1.01182e-14
2.06637e-14
1.56046e-14
1.89983e-13
8.35097e-14
8.43644e-14
3.57857e-13
2.13e-14
4.50637e-13
2.31966e-14
1.01182e-14
3.3062e-13
4.83744e-13
1.89983e-13
2.5888e-12
1.34983e-12
4.12861e-12
3.40801e-13
4.97629e-12
3.01535e-11
4.64812e-11
1.85573e-13
1.01182e-14
8.2655e-14
1.09233e-13
1.89983e-13
5.84568e-13
3.37458e-13
1.11201e-12
8.52002e-14
1.49959e-12
4.63932e-14
1.01182e-14
2.06637e-14
1.56046e-14
1.89983e-13
8.35097e-14
8.43644e-14
3.57857e-13
2.13e-14
4.50637e-13
2.31966e-14
1.01182e-14
3.3062e-13
4.83744e-13
1.89983e-13
2.5888e-12
1.34983e-12
4.12861e-12
3.40801e-13
4.97629e-12
3.01535e-11
4.46675e-11
1.85573e-13
1.01182e-14
8.2655e-14
1.09233e-13
1.89983e-13
5.84568e-13
3.37458e-13
1.11201e-12
8.52002e-14
1.49959e-12
4.63932e-14
1.01182e-14
2.06637e-14
1.56046e-14
1.89983e-13
8.35097e-14
8.43644e-14
3.57857e-13
2.13e-14
4.50637e-13
2.31966e-14
1.01182e-14
3.3062e-13
4.83744e-13
1.89983e-13
2.5888e-12
1.34983e-12
4.12861e-12
3.40801e-13
4.97629e-12
3.01535e-11
4.6148e-11
1.85573e-13
1.01182e-14
8.2655e-14
1.09233e-13
1.89983e-13
5.84568e-13
3.37458e-13
1.11201e-12
8.52002e-14
1.49959e-12
4.63932e-14
1.01182e-14
2.06637e-14
1.56046e-14
1.89983e-13
8.35097e-14
8.43644e-14
3.57857e-13
2.13e-14
4.50637e-13
2.31966e-14
1.01182e-14
3.3062e-13
4.83744e-13
1.89983e-13
2.5888e-12
1.34983e-12
4.12861e-12
3.40801e-13
4.97629e-12
3.01535e-11
4.88982e-11
1.85573e-13
1.01182e-14
8.2655e-14
1.09233e-13
1.89983e-13
5.84568e-13
3.37458e-13
1.11201e-12
8.52002e-14
1.49959e-12
4.63932e-14
1.01182e-14
2.06637e-14
1.56046e-14
1.89983e-13
8.35097e-14
8.43644e-14
3.57857e-13
2.13e-14
4.50637e-13
2.31966e-14
1.01182e-14
3.3062e-13
4.83744e-13
1.89983e-13
2.5888e-12
1.34983e-12
4.12861e-12
3.40801e-13
4.97629e-12
3.01535e-11
4.58795e-11
1.85573e-13
1.01182e-14
8.2655e-14
1.09233e-13
1.89983e-13
5.84568e-13
3.37458e-13
1.11201e-12
8.52002e-14
1.49959e-12
4.63932e-14
1.01182e-14
2.06637e-14
1.56046e-14
1.89983e-13
8.35097e-14
8.43644e-14
3.57857e-13
2.13e-14
4.50637e-13
2.31966e-14
1.01182e-14
3.3062e-13
4.83744e-13
1.89983e-13
2.5888e-12
1.34983e-12
4.12861e-12
3.40801e-13
4.97629e-12
3.01535e-11
4.94325e-11
1.85573e-13
1.01182e-14
8.2655e-14
1.09233e-13
1.89983e-13
5.84568e-13
3.37458e-13
1.11201e-12
8.52002e-14
1.49959e-12
4.63932e-14
1.01182e-14
2.06637e-14
1.56046e-14
1.89983e-13
8.35097e-14
8.43644e-14
3.57857e-13
2.13e-14
4.50637e-13
2.31966e-14
1.01182e-14
3.3062e-13
4.83744e-13
1.89983e-13
2.5888e-12
1.34983e-12
4.12861e-12
3.40801e-13
4.97629e-12
3.01535e-11
4.62975e-11
1.85573e-13
1.01182e-14
8.2655e-14
1.09233e-13
1.89983e-13
5.84568e-13
3.37458e-13
1.11201e-12
8.52002e-14
1.49959e-12
4.63932e-14
1.01182e-14
2.06637e-14
1.56046e-14
1.89983e-13
8.35097e-14
8.43644e-14
3.57857e-13
2.13e-14
4.50637e-13
2.31966e-14
1.01182e-14
3.3062e-13
4.83744e-13
1.89983e-13
2.5888e-12
1.34983e-12
4.12861e-12
3.40801e-13
4.97629e-12
3.01535e-11
4.57588e-11
1.85573e-13
1.01182e-14
8.2655e-14
1.09233e-13
1.89983e-13
5.84568e-13
3.37458e-13
1.11201e-12
8.52002e-14
1.49959e-12
4.63932e-14
1.01182e-14
2.06637e-14
1.56046e-14
1.89983e-13
8.35097e-14
8.43644e-14
3.57857e-13
2.13e-14
4.50637e-13
2.31966e-14
1.01182e-14
3.3062e-13
4.83744e-13
1.89983e-13
2.5888e-12
1.34983e-12
4.12861e-12
3.40801e-13
4.97629e-12
3.01535e-11
4.83267e-11
1.85573e-13
1.01182e-14
8.2655e-14
1.09233e-13
1.89983e-13
5.84568e-13
3.37458e-13
1.11201e-12
8.52002e-14
1.49959e-12
4.63932e-14
1.01182e-14
2.06637e-14
1.56046e-14
1.89983e-13
8.35097e-14
8.43644e-14
3.57857e-13
2.13e-14
4.50637e-13
2.31966e-14
1.01182e-14
3.3062e-13
4.83744e-13
1.89983e-13
2.5888e-12
1.34983e-12
4.12861e-12
3.40801e-13
4.97629e-12
3.01535e-11
4.56854e-11
1.85573e-13
1.01182e-14
8.2655e-14
1.09233e-13
1.89983e-13
5.84568e-13
3.37458e-13
1.11201e-12
8.52002e-14
1.49959e-12
4.63932e-14
1.01182e-14
2.06637e-14
1.56046e-14
1.89983e-13
8.35097e-14
8.43644e-14
3.57857e-13
2.13e-14
4.50637e-13
2.31966e-14
1.01182e-14
3.3062e-13
4.83744e-13
1.89983e-13
2.5888e-12
1.34983e-12
4.12861e-12
3.40801e-13
4.97629e-12
3.01535e-11
4.6003e-11
1.85573e-13
1.01182e-14
8.2655e-14
1.09233e-13
1.89983e-13
5.84568e-13
3.37458e-13
1.11201e-12
8.52002e-14
1.49959e-12
4.63932e-14
1.01182e-14
2.06637e-14
1.56046e-14
1.89983e-13
8.35097e-14
8.43644e-14
3.57857e-13
2.13e-14
4.50637e-13
2.31966e-14
1.01182e-14
3.3062e-13
4.83744e-13
1.89983e-13
2.5888e-12
1.34983e-12
4.12861e-12
3.40801e-13
4.97629e-12
3.01535e-11
4.54555e-11
1.85573e-13
1.01182e-14
8.2655e-14
1.09233e-13
1.89983e-13
5.84568e-13
3.37458e-13
1.11201e-12
8.52002e-14
1.49959e-12
4.63932e-14
1.01182e-14
2.06637e-14
1.56046e-14
1.89983e-13
8.35097e-14
8.43644e-14
3.57857e-13
2.13e-14
4.50637e-13
2.31966e-14
1.01182e-14
3.3062e-13
4.83744e-13
1.89983e-13
2.5888e-12
1.34983e-12
4.12861e-12
3.40801e-13
4.97629e-12
3.01535e-11
5.03019e-11
1.85573e-13
1.01182e-14
8.2655e-14
1.09233e-13
1.89983e-13
5.84568e-13
3.37458e-13
1.11201e-12
8.52002e-14
1.49959e-12
4.63932e-14
1.01182e-14
2.06637e-14
1.56046e-14
1.89983e-13
8.35097e-14
8.43644e-14
3.57857e-13
2.13e-14
4.50637e-13
2.31966e-14
1.01182e-14
3.3062e-13
4.83744e-13
1.89983e-13
2.5888e-12
1.34983e-12
4.12861e-12
3.40801e-13
4.97629e-12
3.01535e-11
4.67957e-11
1.85573e-13
1.01182e-14
8.2655e-14
1.09233e-13
1.89983e-13
5.84568e-13
3.37458e-13
1.11201e-12
8.52002e-14
1.49959e-12
4.63932e-14
1.01182e-14
2.06637e-14
1.56046e-14
1.89983e-13
8.35097e-14
8.43644e-14
3.57857e-13
2.13e-14
4.50637e-13
2.31966e-14
1.01182e-14
3.3062e-13
4.83744e-13
1.89983e-13
2.5888e-12
1.34983e-12
4.12861e-12
3.40801e-13
4.97629e-12
3.01535e-11
4.90229e-11
1.85573e-13
1.01182e-14
8.2655e-14
1.09233e-13
1.89983e-13
5.84568e-13
3.37458e-13
1.11201e-12
8.52002e-14
1.49959e-12
4.63932e-14
1.01182e-14
2.06637e-14
1.56046e-14
1.89983e-13
8.35097e-14
8.43644e-14
3.57857e-13
2.13e-14
4.50637e-13
2.31966e-14
1.01182e-14
3.3062e-13
4.83744e-13
1.89983e-13
2.5888e-12
1.34983e-12
4.12861e-12
3.40801e-13
4.97629e-12
3.01535e-11
4.6252e-11
1.85573e-13
1.01182e-14
8.2655e-14
1.09233e-13
1.89983e-13
5.84568e-13
3.37458e-13
1.11201e-12
8.52002e-14
1.49959e-12
4.63932e-14
1.01182e-14
2.06637e-14
1.56046e-14
1.89983e-13
8.35097e-14
8.43644e-14
3.57857e-13
2.13e-14
4.50637e-13
2.31966e-14
1.01182e-14
3.3062e-13
4.83744e-13
1.89983e-13
2.5888e-12
1.34983e-12
4.12861e-12
3.40801e-13
4.97629e-12
3.01535e-11
4.52151e-11
1.85573e-13
1.01182e-14
8.2655e-14
1.09233e-13
1.89983e-13
5.84568e-13
3.37458e-13
1.11201e-12
8.52002e-14
1.49959e-12
4.63932e-14
1.01182e-14
2.06637e-14
1.56046e-14
1.89983e-13
8.35097e-14
8.43644e-14
3.57857e-13
2.13e-14
4.50637e-13
2.31966e-14
1.01182e-14
3.3062e-13
4.83744e-13
1.89983e-13
2.5888e-12
1.34983e-12
4.12861e-12
3.40801e-13
4.97629e-12
3.01535e-11
4.70488e-11
1.85573e-13
1.01182e-14
8.2655e-14
1.09233e-13
1.89983e-13
5.84568e-13
3.37458e-13
1.11201e-12
8.52002e-14
1.49959e-12
4.63932e-14
1.01182e-14
2.06637e-14
1.56046e-14
1.89983e-13
8.35097e-14
8.43644e-14
3.57857e-13
2.13e-14
4.50637e-13
2.31966e-14
1.01182e-14
3.3062e-13
4.83744e-13
1.89983e-13
2.5888e-12
1.34983e-12
4.12861e-12
3.40801e-13
4.97629e-12
3.01535e-11
4.5784e-11
1.85573e-13
1.01182e-14
8.2655e-14
1.09233e-13
1.89983e-13
5.84568e-13
3.37458e-13
1.11201e-12
8.52002e-14
1.49959e-12
4.63932e-14
1.01182e-14
2.06637e-14
1.56046e-14
1.89983e-13
8.35097e-14
8.43644e-14
3.57857e-13
2.13e-14
4.50637e-13
2.31966e-14
1.01182e-14
3.3062e-13
4.83744e-13
1.89983e-13
2.5888e-12
1.34983e-12
4.12861e-12
3.40801e-13
4.97629e-12
3.01535e-11
4.54844e-11
1.85573e-13
1.01182e-14
8.2655e-14
1.09233e-13
1.89983e-13
5.84568e-13
3.37458e-13
1.11201e-12
8.52002e-14
1.49959e-12
4.63932e-14
1.01182e-14
2.06637e-14
1.56046e-14
1.89983e-13
8.35097e-14
8.43644e-14
3.57857e-13
2.13e-14
4.50637e-13
2.31966e-14
1.01182e-14
3.3062e-13
4.83744e-13
1.89983e-13
2.5888e-12
1.34983e-12
4.12861e-12
3.40801e-13
4.97629e-12
3.01535e-11
5.02963e-11
1.85573e-13
1.01182e-14
8.2655e-14
1.09233e-13
1.89983e-13
5.84568e-13
3.37458e-13
1.11201e-12
8.52002e-14
1.49959e-12
4.63932e-14
1.01182e-14
2.06637e-14
1.56046e-14
1.89983e-13
8.35097e-14
8.43644e-14
3.57857e-13
2.13e-14
4.50637e-13
2.31966e-14
1.01182e-14
3.3062e-13
4.83744e-13
1.89983e-13
2.5888e-12
1.34983e-12
4.12861e-12
3.40801e-13
4.97629e-12
3.01535e-11
4.67842e-11
1.85573e-13
1.01182e-14
8.2655e-14
1.09233e-13
1.89983e-13
5.84568e-13
3.37458e-13
1.11201e-12
8.52002e-14
1.49959e-12
4.63932e-14
1.01182e-14
2.06637e-14
1.56046e-14
1.89983e-13
8.35097e-14
8.43644e-14
3.57857e-13
2.13e-14
4.50637e-13
2.31966e-14
1.01182e-14
3.3062e-13
4.83744e-13
1.89983e-13
2.5888e-12
1.34983e-12
4.12861e-12
3.40801e-13
4.97629e-12
3.01535e-11
4.68057e-11
1.85573e-13
1.01182e-14
8.2655e-14
1.09233e-13
1.89983e-13
5.84568e-13
3.37458e-13
1.11201e-12
8.52002e-14
1.49959e-12
4.63932e-14
1.01182e-14
2.06637e-14
1.56046e-14
1.89983e-13
8.35097e-14
8.43644e-14
3.57857e-13
2.13e-14
4.50637e-13
2.31966e-14
1.01182e-14
3.3062e-13
4.83744e-13
1.89983e-13
2.5888e-12
1.34983e-12
4.12861e-12
3.40801e-13
4.97629e-12
3.01535e-11
4.62383e-11
1.85573e-13
1.01182e-14
8.2655e-14
1.09233e-13
1.89983e-13
5.84568e-13
3.37458e-13
1.11201e-12
8.52002e-14
1.49959e-12
4.63932e-14
1.01182e-14
2.06637e-14
1.56046e-14
1.89983e-13
8.35097e-14
8.43644e-14
3.57857e-13
2.13e-14
4.50637e-13
2.31966e-14
1.01182e-14
3.3062e-13
4.83744e-13
1.89983e-13
2.5888e-12
1.34983e-12
4.12861e-12
3.40801e-13
4.97629e-12
3.01535e-11
4.8388e-11
1.85573e-13
1.01182e-14
8.2655e-14
1.09233e-13
1.89983e-13
5.84568e-13
3.37458e-13
1.11201e-12
8.52002e-14
1.49959e-12
4.63932e-14
1.01182e-14
2.06637e-14
1.56046e-14
1.89983e-13
8.35097e-14
8.43644e-14
3.57857e-13
2.13e-14
4.50637e-13
2.31966e-14
1.01182e-14
3.3062e-13
4.83744e-13
1.89983e-13
2.5888e-12
1.34983e-12
4.12861e-12
3.40801e-13
4.97629e-12
3.01535e-11
4.67778e-11
1.85573e-13
1.01182e-14
8.2655e-14
1.09233e-13
1.89983e-13
5.84568e-13
3.37458e-13
1.11201e-12
8.52002e-14
1.49959e-12
4.63932e-14
1.01182e-14
2.06637e-14
1.56046e-14
1.89983e-13
8.35097e-14
8.43644e-14
3.57857e-13
2.13e-14
4.50637e-13
2.31966e-14
1.01182e-14
3.3062e-13
4.83744e-13
1.89983e-13
2.5888e-12
1.34983e-12
4.12861e-12
3.40801e-13
4.97629e-12
3.01535e-11
4.71078e-11
1.85573e-13
1.01182e-14
8.2655e-14
1.09233e-13
1.89983e-13
5.84568e-13
3.37458e-13
1.11201e-12
8.52002e-14
1.49959e-12
4.63932e-14
1.01182e-14
2.06637e-14
1.56046e-14
1.89983e-13
8.35097e-14
8.43644e-14
3.57857e-13
2.13e-14
4.50637e-13
2.31966e-14
1.01182e-14
3.3062e-13
4.83744e-13
1.89983e-13
2.5888e-12
1.34983e-12
4.12861e-12
3.40801e-13
4.97629e-12
3.01535e-11
4.86607e-11
1.85573e-13
1.01182e-14
8.2655e-14
1.09233e-13
1.89983e-13
5.84568e-13
3.37458e-13
1.11201e-12
8.52002e-14
1.49959e-12
4.63932e-14
1.01182e-14
2.06637e-14
1.56046e-14
1.89983e-13
8.35097e-14
8.43644e-14
3.57857e-13
2.13e-14
4.50637e-13
2.31966e-14
1.01182e-14
3.3062e-13
4.83744e-13
1.89983e-13
2.5888e-12
1.34983e-12
4.12861e-12
3.40801e-13
4.97629e-12
3.01535e-11
4.83065e-11
1.85573e-13
1.01182e-14
8.2655e-14
1.09233e-13
1.89983e-13
5.84568e-13
3.37458e-13
1.11201e-12
8.52002e-14
1.49959e-12
4.63932e-14
1.01182e-14
2.06637e-14
1.56046e-14
1.89983e-13
8.35097e-14
8.43644e-14
3.57857e-13
2.13e-14
4.50637e-13
2.31966e-14
1.01182e-14
3.3062e-13
4.83744e-13
1.89983e-13
2.5888e-12
1.34983e-12
4.12861e-12
3.40801e-13
4.97629e-12
3.01535e-11
4.67856e-11
1.85573e-13
1.01182e-14
8.2655e-14
1.09233e-13
1.89983e-13
5.84568e-13
3.37458e-13
1.11201e-12
8.52002e-14
1.49959e-12
4.63932e-14
1.01182e-14
2.06637e-14
1.56046e-14
1.89983e-13
8.35097e-14
8.43644e-14
3.57857e-13
2.13e-14
4.50637e-13
2.31966e-14
1.01182e-14
3.3062e-13
4.83744e-13
1.89983e-13
2.5888e-12
1.34983e-12
4.12861e-12
3.40801e-13
4.97629e-12
3.01535e-11
4.68669e-11
1.85573e-13
1.01182e-14
8.2655e-14
1.09233e-13
1.89983e-13
5.84568e-13
3.37458e-13
1.11201e-12
8.52002e-14
1.49959e-12
4.63932e-14
1.01182e-14
2.06637e-14
1.56046e-14
1.89983e-13
8.35097e-14
8.43644e-14
3.57857e-13
2.13e-14
4.50637e-13
2.31966e-14
1.01182e-14
3.3062e-13
4.83744e-13
1.89983e-13
2.5888e-12
1.34983e-12
4.12861e-12
3.40801e-13
4.97629e-12
3.01535e-11
4.90307e-11
1.85573e-13
1.01182e-14
8.2655e-14
1.09233e-13
1.89983e-13
5.84568e-13
3.37458e-13
1.11201e-12
8.52002e-14
1.49959e-12
4.63932e-14
1.01182e-14
2.06637e-14
1.56046e-14
1.89983e-13
8.35097e-14
8.43644e-14
3.57857e-13
2.13e-14
4.50637e-13
2.31966e-14
1.01182e-14
3.3062e-13
4.83744e-13
1.89983e-13
2.5888e-12
1.34983e-12
4.12861e-12
3.40801e-13
4.97629e-12
3.01535e-11
4.73008e-11
1.85573e-13
1.01182e-14
8.2655e-14
1.09233e-13
1.89983e-13
5.84568e-13
3.37458e-13
1.11201e-12
8.52002e-14
1.49959e-12
4.63932e-14
1.01182e-14
2.06637e-14
1.56046e-14
1.89983e-13
8.35097e-14
8.43644e-14
3.57857e-13
2.13e-14
4.50637e-13
2.31966e-14
1.01182e-14
3.3062e-13
4.83744e-13
1.89983e-13
2.5888e-12
1.34983e-12
4.12861e-12
3.40801e-13
4.97629e-12
3.01535e-11
4.64152e-11
1.85573e-13
1.01182e-14
8.2655e-14
1.09233e-13
1.89983e-13
5.84568e-13
3.37458e-13
1.11201e-12
8.52002e-14
1.49959e-12
4.63932e-14
1.01182e-14
2.06637e-14
1.56046e-14
1.89983e-13
8.35097e-14
8.43644e-14
3.57857e-13
2.13e-14
4.50637e-13
2.31966e-14
1.01182e-14
3.3062e-13
4.83744e-13
1.89983e-13
2.5888e-12
1.34983e-12
4.12861e-12
3.40801e-13
4.97629e-12
3.01535e-11
4.52995e-11
1.85573e-13
1.01182e-14
8.2655e-14
1.09233e-13
1.89983e-13
5.84568e-13
3.37458e-13
1.11201e-12
8.52002e-14
1.49959e-12
4.63932e-14
1.01182e-14
2.06637e-14
1.56046e-14
1.89983e-13
8.35097e-14
8.43644e-14
3.57857e-13
2.13e-14
4.50637e-13
2.31966e-14
1.01182e-14
3.3062e-13
4.83744e-13
1.89983e-13
2.5888e-12
1.34983e-12
4.12861e-12
3.40801e-13
4.97629e-12
3.01535e-11
4.57548e-11
1.85573e-13
1.01182e-14
8.2655e-14
1.09233e-13
1.89983e-13
5.84568e-13
3.37458e-13
1.11201e-12
8.52002e-14
1.49959e-12
4.63932e-14
1.01182e-14
2.06637e-14
1.56046e-14
1.89983e-13
8.35097e-14
8.43644e-14
3.57857e-13
2.13e-14
4.50637e-13
2.31966e-14
1.01182e-14
3.3062e-13
4.83744e-13
1.89983e-13
2.5888e-12
1.34983e-12
4.12861e-12
3.40801e-13
4.97629e-12
3.01535e-11
4.72929e-11
1.85573e-13
1.01182e-14
8.2655e-14
1.09233e-13
1.89983e-13
5.84568e-13
3.37458e-13
1.11201e-12
8.52002e-14
1.49959e-12
4.63932e-14
1.01182e-14
2.06637e-14
1.56046e-14
1.89983e-13
8.35097e-14
8.43644e-14
3.57857e-13
2.13e-14
4.50637e-13
2.31966e-14
1.01182e-14
3.3062e-13
4.83744e-13
1.89983e-13
2.5888e-12
1.34983e-12
4.12861e-12
3.40801e-13
4.97629e-12
3.01535e-11
4.78358e-11
1.85573e-13
1.01182e-14
8.2655e-14
1.09233e-13
1.89983e-13
5.84568e-13
3.37458e-13
1.11201e-12
8.52002e-14
1.49959e-12
4.63932e-14
1.01182e-14
2.06637e-14
1.56046e-14
1.89983e-13
8.35097e-14
8.43644e-14
3.57857e-13
2.13e-14
4.50637e-13
2.31966e-14
1.01182e-14
3.3062e-13
4.83744e-13
1.89983e-13
2.5888e-12
1.34983e-12
4.12861e-12
3.40801e-13
4.97629e-12
3.01535e-11
4.54288e-11
1.85573e-13
1.01182e-14
8.2655e-14
1.09233e-13
1.89983e-13
5.84568e-13
3.37458e-13
1.11201e-12
8.52002e-14
1.49959e-12
4.63932e-14
1.01182e-14
2.06637e-14
1.56046e-14
1.89983e-13
8.35097e-14
8.43644e-14
3.57857e-13
2.13e-14
4.50637e-13
2.31966e-14
1.01182e-14
3.3062e-13
4.83744e-13
1.89983e-13
2.5888e-12
1.34983e-12
4.12861e-12
3.40801e-13
4.97629e-12
3.01535e-11
4.76669e-11
1.85573e-13
1.01182e-14
8.2655e-14
1.09233e-13
1.89983e-13
5.84568e-13
3.37458e-13
1.11201e-12
8.52002e-14
1.49959e-12
4.63932e-14
1.01182e-14
2.06637e-14
1.56046e-14
1.89983e-13
8.35097e-14
8.43644e-14
3.57857e-13
2.13e-14
4.50637e-13
2.31966e-14
1.01182e-14
3.3062e-13
4.83744e-13
1.89983e-13
2.5888e-12
1.34983e-12
4.12861e-12
3.40801e-13
4.97629e-12
3.01535e-11
4.74296e-11
1.85573e-13
1.01182e-14
8.2655e-14
1.09233e-13
1.89983e-13
5.84568e-13
3.37458e-13
1.11201e-12
8.52002e-14
1.49959e-12
4.63932e-14
1.01182e-14
2.06637e-14
1.56046e-14
1.89983e-13
8.35097e-14
8.43644e-14
3.57857e-13
2.13e-14
4.50637e-13
2.31966e-14
1.01182e-14
3.3062e-13
4.83744e-13
1.89983e-13
2.5888e-12
1.34983e-12
4.12861e-12
3.40801e-13
4.97629e-12
3.01535e-11
4.50671e-11
1.85573e-13
1.01182e-14
8.2655e-14
1.09233e-13
1.89983e-13
5.84568e-13
3.37458e-13
1.11201e-12
8.52002e-14
1.49959e-12
4.63932e-14
1.01182e-14
2.06637e-14
1.56046e-14
1.89983e-13
8.35097e-14
8.43644e-14
3.57857e-13
2.13e-14
4.50637e-13
2.31966e-14
1.01182e-14
3.3062e-13
4.83744e-13
1.89983e-13
2.5888e-12
1.34983e-12
4.12861e-12
3.40801e-13
4.97629e-12
3.01535e-11
4.25799e-11
1.85573e-13
1.01182e-14
8.2655e-14
1.09233e-13
1.89983e-13
5.84568e-13
3.37458e-13
1.11201e-12
8.52002e-14
1.49959e-12
4.63932e-14
1.01182e-14
2.06637e-14
1.56046e-14
1.89983e-13
8.35097e-14
8.43644e-14
3.57857e-13
2.13e-14
4.50637e-13
2.31966e-14
1.01182e-14
3.3062e-13
4.83744e-13
1.89983e-13
2.5888e-12
1.34983e-12
4.12861e-12
3.40801e-13
4.97629e-12
3.01535e-11
4.3862e-11
1.85573e-13
1.01182e-14
8.2655e-14
1.09233e-13
1.89983e-13
5.84568e-13
3.37458e-13
1.11201e-12
8.52002e-14
1.49959e-12
4.63932e-14
1.01182e-14
2.06637e-14
1.56046e-14
1.89983e-13
8.35097e-14
8.43644e-14
3.57857e-13
2.13e-14
4.50637e-13
2.31966e-14
1.01182e-14
3.3062e-13
4.83744e-13
1.89983e-13
2.5888e-12
1.34983e-12
4.12861e-12
3.40801e-13
4.97629e-12
3.01535e-11
4.47486e-11
1.85573e-13
1.01182e-14
8.2655e-14
1.09233e-13
1.89983e-13
5.84568e-13
3.37458e-13
1.11201e-12
8.52002e-14
1.49959e-12
4.63932e-14
1.01182e-14
2.06637e-14
1.56046e-14
1.89983e-13
8.35097e-14
8.43644e-14
3.57857e-13
2.13e-14
4.50637e-13
2.31966e-14
1.01182e-14
3.3062e-13
4.83744e-13
1.89983e-13
2.5888e-12
1.34983e-12
4.12861e-12
3.40801e-13
4.97629e-12
3.01535e-11
4.48838e-11
1.85573e-13
1.01182e-14
8.2655e-14
1.09233e-13
1.89983e-13
5.84568e-13
3.37458e-13
1.11201e-12
8.52002e-14
1.49959e-12
4.63932e-14
1.01182e-14
2.06637e-14
1.56046e-14
1.89983e-13
8.35097e-14
8.43644e-14
3.57857e-13
2.13e-14
4.50637e-13
2.31966e-14
1.01182e-14
3.3062e-13
4.83744e-13
1.89983e-13
2.5888e-12
1.34983e-12
4.12861e-12
3.40801e-13
4.97629e-12
3.01535e-11
4.48639e-11
1.85573e-13
1.01182e-14
8.2655e-14
1.09233e-13
1.89983e-13
5.84568e-13
3.37458e-13
1.11201e-12
8.52002e-14
1.49959e-12
4.63932e-14
1.01182e-14
2.06637e-14
1.56046e-14
1.89983e-13
8.35097e-14
8.43644e-14
3.57857e-13
2.13e-14
4.50637e-13
2.31966e-14
1.01182e-14
3.3062e-13
4.83744e-13
1.89983e-13
2.5888e-12
1.34983e-12
4.12861e-12
3.40801e-13
4.97629e-12
3.01535e-11
4.51419e-11
1.85573e-13
1.01182e-14
8.2655e-14
1.09233e-13
1.89983e-13
5.84568e-13
3.37458e-13
1.11201e-12
8.52002e-14
1.49959e-12
4.63932e-14
1.01182e-14
2.06637e-14
1.56046e-14
1.89983e-13
8.35097e-14
8.43644e-14
3.57857e-13
2.13e-14
4.50637e-13
2.31966e-14
1.01182e-14
3.3062e-13
4.83744e-13
1.89983e-13
2.5888e-12
1.34983e-12
4.12861e-12
3.40801e-13
4.97629e-12
3.01535e-11
4.48468e-11
1.85573e-13
1.01182e-14
8.2655e-14
1.09233e-13
1.89983e-13
5.84568e-13
3.37458e-13
1.11201e-12
8.52002e-14
1.49959e-12
4.63932e-14
1.01182e-14
2.06637e-14
1.56046e-14
1.89983e-13
8.35097e-14
8.43644e-14
3.57857e-13
2.13e-14
4.50637e-13
2.31966e-14
1.01182e-14
3.3062e-13
4.83744e-13
1.89983e-13
2.5888e-12
1.34983e-12
4.12861e-12
3.40801e-13
4.97629e-12
3.01535e-11
4.31516e-11
1.85573e-13
1.01182e-14
8.2655e-14
1.09233e-13
1.89983e-13
5.84568e-13
3.37458e-13
1.11201e-12
8.52002e-14
1.49959e-12
4.63932e-14
1.01182e-14
2.06637e-14
1.56046e-14
1.89983e-13
8.35097e-14
8.43644e-14
3.57857e-13
2.13e-14
4.50637e-13
2.31966e-14
1.01182e-14
3.3062e-13
4.83744e-13
1.89983e-13
2.5888e-12
1.34983e-12
4.12861e-12
3.40801e-13
4.97629e-12
3.1332e-11
4.35543e-11
1.85573e-13
1.01182e-14
8.2655e-14
1.09233e-13
1.89983e-13
5.84568e-13
3.37458e-13
1.11201e-12
8.52002e-14
1.49959e-12
4.63932e-14
1.01182e-14
2.06637e-14
1.56046e-14
1.89983e-13
8.35097e-14
8.43644e-14
3.57857e-13
2.13e-14
4.50637e-13
2.31966e-14
1.01182e-14
3.3062e-13
4.83744e-13
1.89983e-13
2.5888e-12
1.34983e-12
4.12861e-12
3.40801e-13
4.97629e-12
3.1332e-11
4.3709e-11
1.85573e-13
1.01182e-14
8.2655e-14
1.09233e-13
1.89983e-13
5.84568e-13
3.37458e-13
1.11201e-12
8.52002e-14
1.49959e-12
4.63932e-14
1.01182e-14
2.06637e-14
1.56046e-14
1.89983e-13
8.35097e-14
8.43644e-14
3.57857e-13
2.13e-14
4.50637e-13
2.31966e-14
1.01182e-14
3.3062e-13
4.83744e-13
1.89983e-13
2.5888e-12
1.34983e-12
4.12861e-12
3.40801e-13
4.97629e-12
3.1332e-11
4.4509e-11
1.85573e-13
1.01182e-14
8.2655e-14
1.09233e-13
1.89983e-13
5.84568e-13
3.37458e-13
1.11201e-12
8.52002e-14
1.49959e-12
4.63932e-14
1.01182e-14
2.06637e-14
1.56046e-14
1.89983e-13
8.35097e-14
8.43644e-14
3.57857e-13
2.13e-14
4.50637e-13
2.31966e-14
1.01182e-14
3.3062e-13
4.83744e-13
1.89983e-13
2.5888e-12
1.34983e-12
4.12861e-12
3.40801e-13
4.97629e-12
3.1332e-11
4.54029e-11
1.85573e-13
1.01182e-14
8.2655e-14
1.09233e-13
1.89983e-13
5.84568e-13
3.37458e-13
1.11201e-12
8.52002e-14
1.49959e-12
4.63932e-14
1.01182e-14
2.06637e-14
1.56046e-14
1.89983e-13
8.35097e-14
8.43644e-14
3.57857e-13
[...]
1.09233e-13
1.89983e-13
5.84568e-13
3.37458e-13
1.11201e-12
8.52002e-14
1.49959e-12
4.63932e-14
1.01182e-14
2.06637e-14
1.56046e-14
1.89983e-13
8.35097e-14
8.43644e-14
3.57857e-13
2.13e-14
4.50637e-13
2.31966e-14
1.01182e-14
3.3062e-13
4.83744e-13
1.89983e-13
2.5888e-12
1.34983e-12
4.12861e-12
3.40801e-13
4.97629e-12
3.48675e-11
5.08108e-11
1.85573e-13
1.01182e-14
8.2655e-14
1.09233e-13
1.89983e-13
5.84568e-13
3.37458e-13
1.11201e-12
8.52002e-14
1.49959e-12
4.63932e-14
1.01182e-14
2.06637e-14
1.56046e-14
1.89983e-13
8.35097e-14
8.43644e-14
3.57857e-13
2.13e-14
4.50637e-13
2.31966e-14
1.01182e-14
3.3062e-13
4.83744e-13
1.89983e-13
2.5888e-12
1.34983e-12
4.12861e-12
3.40801e-13
4.97629e-12
3.48675e-11
5.03153e-11
1.85573e-13
1.01182e-14
8.2655e-14
1.09233e-13
1.89983e-13
5.84568e-13
3.37458e-13
1.11201e-12
8.52002e-14
1.49959e-12
4.63932e-14
1.01182e-14
2.06637e-14
1.56046e-14
1.89983e-13
8.35097e-14
8.43644e-14
3.57857e-13
2.13e-14
4.50637e-13
2.31966e-14
1.01182e-14
3.3062e-13
4.83744e-13
1.89983e-13
2.5888e-12
1.34983e-12
4.12861e-12
3.40801e-13
4.97629e-12
3.48675e-11
4.93587e-11
1.85573e-13
1.01182e-14
8.2655e-14
1.09233e-13
1.89983e-13
5.84568e-13
3.37458e-13
1.11201e-12
8.52002e-14
1.49959e-12
4.63932e-14
1.01182e-14
2.06637e-14
1.56046e-14
1.89983e-13
8.35097e-14
8.43644e-14
3.57857e-13
2.13e-14
4.50637e-13
2.31966e-14
1.01182e-14
3.3062e-13
4.83744e-13
1.89983e-13
2.5888e-12
1.34983e-12
4.12861e-12
3.40801e-13
4.97629e-12
3.48675e-11
4.83575e-11
1.85573e-13
1.01182e-14
8.2655e-14
1.09233e-13
1.89983e-13
5.84568e-13
3.37458e-13
1.11201e-12
8.52002e-14
1.49959e-12
4.63932e-14
1.01182e-14
2.06637e-14
1.56046e-14
1.89983e-13
8.35097e-14
8.43644e-14
3.57857e-13
2.13e-14
4.50637e-13
2.31966e-14
1.01182e-14
3.3062e-13
4.83744e-13
1.89983e-13
2.5888e-12
1.34983e-12
4.12861e-12
3.40801e-13
4.97629e-12
3.48675e-11
4.90368e-11
1.85573e-13
1.01182e-14
8.2655e-14
1.09233e-13
1.89983e-13
5.84568e-13
3.37458e-13
1.11201e-12
8.52002e-14
1.49959e-12
4.63932e-14
1.01182e-14
2.06637e-14
1.56046e-14
1.89983e-13
8.35097e-14
8.43644e-14
3.57857e-13
2.13e-14
4.50637e-13
2.31966e-14
1.01182e-14
3.3062e-13
4.83744e-13
1.89983e-13
2.5888e-12
1.34983e-12
4.12861e-12
3.40801e-13
4.97629e-12
3.48675e-11
4.95479e-11
1.85573e-13
1.01182e-14
8.2655e-14
1.09233e-13
1.89983e-13
5.84568e-13
3.37458e-13
1.11201e-12
8.52002e-14
1.49959e-12
4.63932e-14
1.01182e-14
2.06637e-14
1.56046e-14
1.89983e-13
8.35097e-14
8.43644e-14
3.57857e-13
2.13e-14
4.50637e-13
2.31966e-14
1.01182e-14
3.3062e-13
4.83744e-13
1.89983e-13
2.5888e-12
1.34983e-12
4.12861e-12
3.40801e-13
4.97629e-12
3.48675e-11
5.08942e-11
1.85573e-13
1.01182e-14
8.2655e-14
1.09233e-13
1.89983e-13
5.84568e-13
3.37458e-13
1.11201e-12
8.52002e-14
1.49959e-12
4.63932e-14
1.01182e-14
2.06637e-14
1.56046e-14
1.89983e-13
8.35097e-14
8.43644e-14
3.57857e-13
2.13e-14
4.50637e-13
2.31966e-14
1.01182e-14
3.3062e-13
4.83744e-13
1.89983e-13
2.5888e-12
1.34983e-12
4.12861e-12
3.40801e-13
4.97629e-12
3.48675e-11
5.15889e-11
1.85573e-13
1.01182e-14
8.2655e-14
1.09233e-13
1.89983e-13
5.84568e-13
3.37458e-13
1.11201e-12
8.52002e-14
1.49959e-12
4.63932e-14
1.01182e-14
2.06637e-14
1.56046e-14
1.89983e-13
8.35097e-14
8.43644e-14
3.57857e-13
2.13e-14
4.50637e-13
2.31966e-14
1.01182e-14
3.3062e-13
4.83744e-13
1.89983e-13
2.5888e-12
1.34983e-12
4.12861e-12
3.40801e-13
4.97629e-12
3.48675e-11
5.19422e-11
1.85573e-13
1.01182e-14
8.2655e-14
1.09233e-13
1.89983e-13
5.84568e-13
3.37458e-13
1.11201e-12
8.52002e-14
1.49959e-12
4.63932e-14
1.01182e-14
2.06637e-14
1.56046e-14
1.89983e-13
8.35097e-14
8.43644e-14
3.57857e-13
2.13e-14
4.50637e-13
2.31966e-14
1.01182e-14
3.3062e-13
4.83744e-13
1.89983e-13
2.5888e-12
1.34983e-12
4.12861e-12
3.40801e-13
4.97629e-12
3.48675e-11
5.16183e-11
1.85573e-13
1.01182e-14
8.2655e-14
1.09233e-13
1.89983e-13
5.84568e-13
3.37458e-13
1.11201e-12
8.52002e-14
1.49959e-12
4.63932e-14
1.01182e-14
2.06637e-14
1.56046e-14
1.89983e-13
8.35097e-14
8.43644e-14
3.57857e-13
2.13e-14
4.50637e-13
2.31966e-14
1.01182e-14
3.3062e-13
4.83744e-13
1.89983e-13
2.5888e-12
1.34983e-12
4.12861e-12
3.40801e-13
4.97629e-12
3.48675e-11
5.08923e-11
1.85573e-13
1.01182e-14
8.2655e-14
1.09233e-13
1.89983e-13
5.84568e-13
3.37458e-13
1.11201e-12
8.52002e-14
1.49959e-12
4.63932e-14
1.01182e-14
2.06637e-14
1.56046e-14
1.89983e-13
8.35097e-14
8.43644e-14
3.57857e-13
2.13e-14
4.50637e-13
2.31966e-14
1.01182e-14
3.3062e-13
4.83744e-13
1.89983e-13
2.5888e-12
1.34983e-12
4.12861e-12
3.40801e-13
4.97629e-12
3.48675e-11
5.15134e-11
1.85573e-13
1.01182e-14
8.2655e-14
1.09233e-13
1.89983e-13
5.84568e-13
3.37458e-13
1.11201e-12
8.52002e-14
1.49959e-12
4.63932e-14
1.01182e-14
2.06637e-14
1.56046e-14
1.89983e-13
8.35097e-14
8.43644e-14
3.57857e-13
2.13e-14
4.50637e-13
2.31966e-14
1.01182e-14
3.3062e-13
4.83744e-13
1.89983e-13
2.5888e-12
1.34983e-12
4.12861e-12
3.40801e-13
4.97629e-12
3.48675e-11
4.87891e-11
1.85573e-13
1.01182e-14
8.2655e-14
1.09233e-13
1.89983e-13
5.84568e-13
3.37458e-13
1.11201e-12
8.52002e-14
1.49959e-12
4.63932e-14
1.01182e-14
2.06637e-14
1.56046e-14
1.89983e-13
8.35097e-14
8.43644e-14
3.57857e-13
2.13e-14
4.50637e-13
2.31966e-14
1.01182e-14
3.3062e-13
4.83744e-13
1.89983e-13
2.5888e-12
1.34983e-12
4.12861e-12
3.40801e-13
4.97629e-12
3.48675e-11
4.96306e-11
1.85573e-13
1.01182e-14
8.2655e-14
1.09233e-13
1.89983e-13
5.84568e-13
3.37458e-13
1.11201e-12
8.52002e-14
1.49959e-12
4.63932e-14
1.01182e-14
2.06637e-14
1.56046e-14
1.89983e-13
8.35097e-14
8.43644e-14
3.57857e-13
2.13e-14
4.50637e-13
2.31966e-14
1.01182e-14
3.3062e-13
4.83744e-13
1.89983e-13
2.5888e-12
1.34983e-12
4.12861e-12
3.40801e-13
4.97629e-12
3.48675e-11
5.06977e-11
1.85573e-13
1.01182e-14
8.2655e-14
1.09233e-13
1.89983e-13
5.84568e-13
3.37458e-13
1.11201e-12
8.52002e-14
1.49959e-12
4.63932e-14
1.01182e-14
2.06637e-14
1.56046e-14
1.89983e-13
8.35097e-14
8.43644e-14
3.57857e-13
2.13e-14
4.50637e-13
2.31966e-14
1.01182e-14
3.3062e-13
4.83744e-13
1.89983e-13
2.5888e-12
1.34983e-12
4.12861e-12
3.40801e-13
4.97629e-12
3.48675e-11
5.17008e-11
1.85573e-13
1.01182e-14
8.2655e-14
1.09233e-13
1.89983e-13
5.84568e-13
3.37458e-13
1.11201e-12
8.52002e-14
1.49959e-12
4.63932e-14
1.01182e-14
2.06637e-14
1.56046e-14
1.89983e-13
8.35097e-14
8.43644e-14
3.57857e-13
2.13e-14
4.50637e-13
2.31966e-14
1.01182e-14
3.3062e-13
4.83744e-13
1.89983e-13
2.5888e-12
1.34983e-12
4.12861e-12
3.40801e-13
4.97629e-12
3.48675e-11
5.23262e-11
1.85573e-13
1.01182e-14
8.2655e-14
1.09233e-13
1.89983e-13
5.84568e-13
3.37458e-13
1.11201e-12
8.52002e-14
1.49959e-12
4.63932e-14
1.01182e-14
2.06637e-14
1.56046e-14
1.89983e-13
8.35097e-14
8.43644e-14
3.57857e-13
2.13e-14
4.50637e-13
2.31966e-14
1.01182e-14
3.3062e-13
4.83744e-13
1.89983e-13
2.5888e-12
1.34983e-12
4.12861e-12
3.40801e-13
4.97629e-12
3.48675e-11
5.48948e-11
1.85573e-13
1.01182e-14
8.2655e-14
1.09233e-13
1.89983e-13
5.84568e-13
3.37458e-13
1.11201e-12
8.52002e-14
1.49959e-12
4.63932e-14
1.01182e-14
2.06637e-14
1.56046e-14
1.89983e-13
8.35097e-14
8.43644e-14
3.57857e-13
2.13e-14
4.50637e-13
2.31966e-14
1.01182e-14
3.3062e-13
4.83744e-13
1.89983e-13
2.5888e-12
1.34983e-12
4.12861e-12
3.40801e-13
4.97629e-12
3.48675e-11
5.18761e-11
1.85573e-13
1.01182e-14
8.2655e-14
1.09233e-13
1.89983e-13
5.84568e-13
3.37458e-13
1.11201e-12
8.52002e-14
1.49959e-12
4.63932e-14
1.01182e-14
2.06637e-14
1.56046e-14
1.89983e-13
8.35097e-14
8.43644e-14
3.57857e-13
2.13e-14
4.50637e-13
2.31966e-14
1.01182e-14
3.3062e-13
4.83744e-13
1.89983e-13
2.5888e-12
1.34983e-12
4.12861e-12
3.40801e-13
4.97629e-12
3.48675e-11
5.08289e-11
1.85573e-13
1.01182e-14
8.2655e-14
1.09233e-13
1.89983e-13
5.84568e-13
3.37458e-13
1.11201e-12
8.52002e-14
1.49959e-12
4.63932e-14
1.01182e-14
2.06637e-14
1.56046e-14
1.89983e-13
8.35097e-14
8.43644e-14
3.57857e-13
2.13e-14
4.50637e-13
2.31966e-14
1.01182e-14
3.3062e-13
4.83744e-13
1.89983e-13
2.5888e-12
1.34983e-12
4.12861e-12
3.40801e-13
4.97629e-12
3.48675e-11
4.9377e-11
1.85573e-13
1.01182e-14
8.2655e-14
1.09233e-13
1.89983e-13
5.84568e-13
3.37458e-13
1.11201e-12
8.52002e-14
1.49959e-12
4.63932e-14
1.01182e-14
2.06637e-14
1.56046e-14
1.89983e-13
8.35097e-14
8.43644e-14
3.57857e-13
2.13e-14
4.50637e-13
2.31966e-14
1.01182e-14
3.3062e-13
4.83744e-13
1.89983e-13
2.5888e-12
1.34983e-12
4.12861e-12
3.40801e-13
4.97629e-12
3.48675e-11
4.96566e-11
1.85573e-13
1.01182e-14
8.2655e-14
1.09233e-13
1.89983e-13
5.84568e-13
3.37458e-13
1.11201e-12
8.52002e-14
1.49959e-12
4.63932e-14
1.01182e-14
2.06637e-14
1.56046e-14
1.89983e-13
8.35097e-14
8.43644e-14
3.57857e-13
2.13e-14
4.50637e-13
2.31966e-14
1.01182e-14
3.3062e-13
4.83744e-13
1.89983e-13
2.5888e-12
1.34983e-12
4.12861e-12
3.40801e-13
4.97629e-12
3.48675e-11
5.31526e-11
1.85573e-13
1.01182e-14
8.2655e-14
1.09233e-13
1.89983e-13
5.84568e-13
3.37458e-13
1.11201e-12
8.52002e-14
1.49959e-12
4.63932e-14
1.01182e-14
2.06637e-14
1.56046e-14
1.89983e-13
8.35097e-14
8.43644e-14
3.57857e-13
2.13e-14
4.50637e-13
2.31966e-14
1.01182e-14
3.3062e-13
4.83744e-13
1.89983e-13
2.5888e-12
1.34983e-12
4.12861e-12
3.40801e-13
4.97629e-12
3.48675e-11
5.4701e-11
1.85573e-13
1.01182e-14
8.2655e-14
1.09233e-13
1.89983e-13
5.84568e-13
3.37458e-13
1.11201e-12
8.52002e-14
1.49959e-12
4.63932e-14
1.01182e-14
2.06637e-14
1.56046e-14
1.89983e-13
8.35097e-14
8.43644e-14
3.57857e-13
2.13e-14
4.50637e-13
2.31966e-14
1.01182e-14
3.3062e-13
4.83744e-13
1.89983e-13
2.5888e-12
1.34983e-12
4.12861e-12
3.40801e-13
4.97629e-12
3.48675e-11
5.21133e-11
1.85573e-13
1.01182e-14
8.2655e-14
1.09233e-13
1.89983e-13
5.84568e-13
3.37458e-13
1.11201e-12
8.52002e-14
1.49959e-12
4.63932e-14
1.01182e-14
2.06637e-14
1.56046e-14
1.89983e-13
8.35097e-14
8.43644e-14
3.57857e-13
2.13e-14
4.50637e-13
2.31966e-14
1.01182e-14
3.3062e-13
4.83744e-13
1.89983e-13
2.5888e-12
1.34983e-12
4.12861e-12
3.40801e-13
4.97629e-12
3.48675e-11
5.49478e-11
1.85573e-13
1.01182e-14
8.2655e-14
1.09233e-13
1.89983e-13
5.84568e-13
3.37458e-13
1.11201e-12
8.52002e-14
1.49959e-12
4.63932e-14
1.01182e-14
2.06637e-14
1.56046e-14
1.89983e-13
8.35097e-14
8.43644e-14
3.57857e-13
2.13e-14
4.50637e-13
2.31966e-14
1.01182e-14
3.3062e-13
4.83744e-13
1.89983e-13
2.5888e-12
1.34983e-12
4.12861e-12
3.40801e-13
4.97629e-12
3.48675e-11
5.41481e-11
1.85573e-13
1.01182e-14
8.2655e-14
1.09233e-13
1.89983e-13
5.84568e-13
3.37458e-13
1.11201e-12
8.52002e-14
1.49959e-12
4.63932e-14
1.01182e-14
2.06637e-14
1.56046e-14
1.89983e-13
8.35097e-14
8.43644e-14
3.57857e-13
2.13e-14
4.50637e-13
2.31966e-14
1.01182e-14
3.3062e-13
4.83744e-13
1.89983e-13
2.5888e-12
1.34983e-12
4.12861e-12
3.40801e-13
4.97629e-12
3.48675e-11
5.33551e-11
1.85573e-13
1.01182e-14
8.2655e-14
1.09233e-13
1.89983e-13
5.84568e-13
3.37458e-13
1.11201e-12
8.52002e-14
1.49959e-12
4.63932e-14
1.01182e-14
2.06637e-14
1.56046e-14
1.89983e-13
8.35097e-14
8.43644e-14
3.57857e-13
2.13e-14
4.50637e-13
2.31966e-14
1.01182e-14
3.3062e-13
4.83744e-13
1.89983e-13
2.5888e-12
1.34983e-12
4.12861e-12
3.40801e-13
4.97629e-12
3.48675e-11
4.93697e-11
1.85573e-13
1.01182e-14
8.2655e-14
1.09233e-13
1.89983e-13
5.84568e-13
3.37458e-13
1.11201e-12
8.52002e-14
1.49959e-12
4.63932e-14
1.01182e-14
2.06637e-14
1.56046e-14
1.89983e-13
8.35097e-14
8.43644e-14
3.57857e-13
2.13e-14
4.50637e-13
2.31966e-14
1.01182e-14
3.3062e-13
4.83744e-13
1.89983e-13
2.5888e-12
1.34983e-12
4.12861e-12
3.40801e-13
4.97629e-12
3.48675e-11
4.91702e-11
1.85573e-13
1.01182e-14
8.2655e-14
1.09233e-13
1.89983e-13
5.84568e-13
3.37458e-13
1.11201e-12
8.52002e-14
1.49959e-12
4.63932e-14
1.01182e-14
2.06637e-14
1.56046e-14
1.89983e-13
8.35097e-14
8.43644e-14
3.57857e-13
2.13e-14
4.50637e-13
2.31966e-14
1.01182e-14
3.3062e-13
4.83744e-13
1.89983e-13
2.5888e-12
1.34983e-12
4.12861e-12
3.40801e-13
4.97629e-12
3.48675e-11
5.35562e-11
1.85573e-13
1.01182e-14
8.2655e-14
1.09233e-13
1.89983e-13
5.84568e-13
3.37458e-13
1.11201e-12
8.52002e-14
1.49959e-12
4.63932e-14
1.01182e-14
2.06637e-14
1.56046e-14
1.89983e-13
8.35097e-14
8.43644e-14
3.57857e-13
2.13e-14
4.50637e-13
2.31966e-14
1.01182e-14
3.3062e-13
4.83744e-13
1.89983e-13
2.5888e-12
1.34983e-12
4.12861e-12
3.40801e-13
4.97629e-12
3.48675e-11
5.5011e-11
1.85573e-13
1.01182e-14
8.2655e-14
1.09233e-13
1.89983e-13
5.84568e-13
3.37458e-13
1.11201e-12
8.52002e-14
1.49959e-12
4.63932e-14
1.01182e-14
2.06637e-14
1.56046e-14
1.89983e-13
8.35097e-14
8.43644e-14
3.57857e-13
2.13e-14
4.50637e-13
2.31966e-14
1.01182e-14
3.3062e-13
4.83744e-13
1.89983e-13
2.5888e-12
1.34983e-12
4.12861e-12
3.40801e-13
4.97629e-12
3.48675e-11
5.46037e-11
1.85573e-13
1.01182e-14
8.2655e-14
1.09233e-13
1.89983e-13
5.84568e-13
3.37458e-13
1.11201e-12
8.52002e-14
1.49959e-12
4.63932e-14
1.01182e-14
2.06637e-14
1.56046e-14
1.89983e-13
8.35097e-14
8.43644e-14
3.57857e-13
2.13e-14
4.50637e-13
2.31966e-14
1.01182e-14
3.3062e-13
4.83744e-13
1.89983e-13
2.5888e-12
1.34983e-12
4.12861e-12
3.40801e-13
4.97629e-12
3.48675e-11
5.33523e-11
1.85573e-13
1.01182e-14
8.2655e-14
1.09233e-13
1.89983e-13
5.84568e-13
3.37458e-13
1.11201e-12
8.52002e-14
1.49959e-12
4.63932e-14
1.01182e-14
2.06637e-14
1.56046e-14
1.89983e-13
8.35097e-14
8.43644e-14
3.57857e-13
2.13e-14
4.50637e-13
2.31966e-14
1.01182e-14
3.3062e-13
4.83744e-13
1.89983e-13
2.5888e-12
1.34983e-12
4.12861e-12
3.40801e-13
4.97629e-12
3.48675e-11
5.31591e-11
1.85573e-13
1.01182e-14
8.2655e-14
1.09233e-13
1.89983e-13
5.84568e-13
3.37458e-13
1.11201e-12
8.52002e-14
1.49959e-12
4.63932e-14
1.01182e-14
2.06637e-14
1.56046e-14
1.89983e-13
8.35097e-14
8.43644e-14
3.57857e-13
2.13e-14
4.50637e-13
2.31966e-14
1.01182e-14
3.3062e-13
4.83744e-13
1.89983e-13
2.5888e-12
1.34983e-12
4.12861e-12
3.40801e-13
4.97629e-12
3.48675e-11
5.16269e-11
1.85573e-13
1.01182e-14
8.2655e-14
1.09233e-13
1.89983e-13
5.84568e-13
3.37458e-13
1.11201e-12
8.52002e-14
1.49959e-12
4.63932e-14
1.01182e-14
2.06637e-14
1.56046e-14
1.89983e-13
8.35097e-14
8.43644e-14
3.57857e-13
2.13e-14
4.50637e-13
2.31966e-14
1.01182e-14
3.3062e-13
4.83744e-13
1.89983e-13
2.5888e-12
1.34983e-12
4.12861e-12
3.40801e-13
4.97629e-12
3.48675e-11
4.8686e-11
1.85573e-13
1.01182e-14
8.2655e-14
1.09233e-13
1.89983e-13
5.84568e-13
3.37458e-13
1.11201e-12
8.52002e-14
1.49959e-12
4.63932e-14
1.01182e-14
2.06637e-14
1.56046e-14
1.89983e-13
8.35097e-14
8.43644e-14
3.57857e-13
2.13e-14
4.50637e-13
2.31966e-14
1.01182e-14
3.3062e-13
4.83744e-13
1.89983e-13
2.5888e-12
1.34983e-12
4.12861e-12
3.40801e-13
4.97629e-12
3.48675e-11
4.90424e-11
1.85573e-13
1.01182e-14
8.2655e-14
1.09233e-13
1.89983e-13
5.84568e-13
3.37458e-13
1.11201e-12
8.52002e-14
1.49959e-12
4.63932e-14
1.01182e-14
2.06637e-14
1.56046e-14
1.89983e-13
8.35097e-14
8.43644e-14
3.57857e-13
2.13e-14
4.50637e-13
2.31966e-14
1.01182e-14
3.3062e-13
4.83744e-13
1.89983e-13
2.5888e-12
1.34983e-12
4.12861e-12
3.40801e-13
4.97629e-12
3.48675e-11
5.04174e-11
1.85573e-13
1.01182e-14
8.2655e-14
1.09233e-13
1.89983e-13
5.84568e-13
3.37458e-13
1.11201e-12
8.52002e-14
1.49959e-12
4.63932e-14
1.01182e-14
2.06637e-14
1.56046e-14
1.89983e-13
8.35097e-14
8.43644e-14
3.57857e-13
2.13e-14
4.50637e-13
2.31966e-14
1.01182e-14
3.3062e-13
4.83744e-13
1.89983e-13
2.5888e-12
1.34983e-12
4.12861e-12
3.40801e-13
4.97629e-12
3.48675e-11
5.12117e-11
1.85573e-13
1.01182e-14
8.2655e-14
1.09233e-13
1.89983e-13
5.84568e-13
3.37458e-13
1.11201e-12
8.52002e-14
1.49959e-12
4.63932e-14
1.01182e-14
2.06637e-14
1.56046e-14
1.89983e-13
8.35097e-14
8.43644e-14
3.57857e-13
2.13e-14
4.50637e-13
2.31966e-14
1.01182e-14
3.3062e-13
4.83744e-13
1.89983e-13
2.5888e-12
1.34983e-12
4.12861e-12
3.40801e-13
4.97629e-12
3.48675e-11
5.1621e-11
1.85573e-13
1.01182e-14
8.2655e-14
1.09233e-13
1.89983e-13
5.84568e-13
3.37458e-13
1.11201e-12
8.52002e-14
1.49959e-12
4.63932e-14
1.01182e-14
2.06637e-14
1.56046e-14
1.89983e-13
8.35097e-14
8.43644e-14
3.57857e-13
2.13e-14
4.50637e-13
2.31966e-14
1.01182e-14
3.3062e-13
4.83744e-13
1.89983e-13
2.5888e-12
1.34983e-12
4.12861e-12
3.40801e-13
4.97629e-12
3.48675e-11
5.14293e-11
1.85573e-13
1.01182e-14
8.2655e-14
1.09233e-13
1.89983e-13
5.84568e-13
3.37458e-13
1.11201e-12
8.52002e-14
1.49959e-12
4.63932e-14
1.01182e-14
2.06637e-14
1.56046e-14
1.89983e-13
8.35097e-14
8.43644e-14
3.57857e-13
2.13e-14
4.50637e-13
2.31966e-14
1.01182e-14
3.3062e-13
4.83744e-13
1.89983e-13
2.5888e-12
1.34983e-12
4.12861e-12
3.40801e-13
4.97629e-12
3.48675e-11
5.08279e-11
1.85573e-13
1.01182e-14
8.2655e-14
1.09233e-13
1.89983e-13
5.84568e-13
3.37458e-13
1.11201e-12
8.52002e-14
1.49959e-12
4.63932e-14
1.01182e-14
2.06637e-14
1.56046e-14
1.89983e-13
8.35097e-14
8.43644e-14
3.57857e-13
2.13e-14
4.50637e-13
2.31966e-14
1.01182e-14
3.3062e-13
4.83744e-13
1.89983e-13
2.5888e-12
1.34983e-12
4.12861e-12
3.40801e-13
4.97629e-12
3.48675e-11
4.96688e-11
1.85573e-13
1.01182e-14
8.2655e-14
1.09233e-13
1.89983e-13
5.84568e-13
3.37458e-13
1.11201e-12
8.52002e-14
1.49959e-12
4.63932e-14
1.01182e-14
2.06637e-14
1.56046e-14
1.89983e-13
8.35097e-14
8.43644e-14
3.57857e-13
2.13e-14
4.50637e-13
2.31966e-14
1.01182e-14
3.3062e-13
4.83744e-13
1.89983e-13
2.5888e-12
1.34983e-12
4.12861e-12
3.40801e-13
4.97629e-12
3.48675e-11
4.81191e-11
1.85573e-13
1.01182e-14
8.2655e-14
1.09233e-13
1.89983e-13
5.84568e-13
3.37458e-13
1.11201e-12
8.52002e-14
1.49959e-12
4.63932e-14
1.01182e-14
2.06637e-14
1.56046e-14
1.89983e-13
8.35097e-14
8.43644e-14
3.57857e-13
2.13e-14
4.50637e-13
2.31966e-14
1.01182e-14
3.3062e-13
4.83744e-13
1.89983e-13
2.5888e-12
1.34983e-12
4.12861e-12
3.40801e-13
4.97629e-12
3.48675e-11
4.77312e-11
1.85573e-13
1.01182e-14
8.2655e-14
1.09233e-13
1.89983e-13
5.84568e-13
3.37458e-13
1.11201e-12
8.52002e-14
1.49959e-12
4.63932e-14
1.01182e-14
2.06637e-14
1.56046e-14
1.89983e-13
8.35097e-14
8.43644e-14
3.57857e-13
2.13e-14
4.50637e-13
2.31966e-14
1.01182e-14
3.3062e-13
4.83744e-13
1.89983e-13
2.5888e-12
1.34983e-12
4.12861e-12
3.40801e-13
4.97629e-12
3.48675e-11
4.8125e-11
1.85573e-13
1.01182e-14
8.2655e-14
1.09233e-13
1.89983e-13
5.84568e-13
3.37458e-13
1.11201e-12
8.52002e-14
1.49959e-12
4.63932e-14
1.01182e-14
2.06637e-14
1.56046e-14
1.89983e-13
8.35097e-14
8.43644e-14
3.57857e-13
2.13e-14
4.50637e-13
2.31966e-14
1.01182e-14
3.3062e-13
4.83744e-13
1.89983e-13
2.5888e-12
1.34983e-12
4.12861e-12
3.40801e-13
4.97629e-12
3.48675e-11
4.8957e-11
1.85573e-13
1.01182e-14
8.2655e-14
1.09233e-13
1.89983e-13
5.84568e-13
3.37458e-13
1.11201e-12
8.52002e-14
1.49959e-12
4.63932e-14
1.01182e-14
2.06637e-14
1.56046e-14
1.89983e-13
8.35097e-14
8.43644e-14
3.57857e-13
2.13e-14
4.50637e-13
2.31966e-14
1.01182e-14
3.3062e-13
4.83744e-13
1.89983e-13
2.5888e-12
1.34983e-12
4.12861e-12
3.40801e-13
4.97629e-12
3.48675e-11
4.89989e-11
1.85573e-13
1.01182e-14
8.2655e-14
1.09233e-13
1.89983e-13
5.84568e-13
3.37458e-13
1.11201e-12
8.52002e-14
1.49959e-12
4.63932e-14
1.01182e-14
2.06637e-14
1.56046e-14
1.89983e-13
8.35097e-14
8.43644e-14
3.57857e-13
2.13e-14
4.50637e-13
2.31966e-14
1.01182e-14
3.3062e-13
4.83744e-13
1.89983e-13
2.5888e-12
1.34983e-12
4.12861e-12
3.40801e-13
4.97629e-12
3.48675e-11
4.85673e-11
1.85573e-13
1.01182e-14
8.2655e-14
1.09233e-13
1.89983e-13
5.84568e-13
3.37458e-13
1.11201e-12
8.52002e-14
1.49959e-12
4.63932e-14
1.01182e-14
2.06637e-14
1.56046e-14
1.89983e-13
8.35097e-14
8.43644e-14
3.57857e-13
2.13e-14
4.50637e-13
2.31966e-14
1.01182e-14
3.3062e-13
4.83744e-13
1.89983e-13
2.5888e-12
1.34983e-12
4.12861e-12
3.40801e-13
4.97629e-12
3.48675e-11
4.7957e-11
1.85573e-13
1.01182e-14
8.2655e-14
1.09233e-13
1.89983e-13
5.84568e-13
3.37458e-13
1.11201e-12
8.52002e-14
1.49959e-12
4.63932e-14
1.01182e-14
2.06637e-14
1.56046e-14
1.89983e-13
8.35097e-14
8.43644e-14
3.57857e-13
2.13e-14
4.50637e-13
2.31966e-14
1.01182e-14
3.3062e-13
4.83744e-13
1.89983e-13
2.5888e-12
1.34983e-12
4.12861e-12
3.40801e-13
4.97629e-12
3.48675e-11
4.71936e-11
1.85573e-13
1.01182e-14
8.2655e-14
1.09233e-13
1.89983e-13
5.84568e-13
3.37458e-13
1.11201e-12
8.52002e-14
1.49959e-12
4.63932e-14
1.01182e-14
2.06637e-14
1.56046e-14
1.89983e-13
8.35097e-14
8.43644e-14
3.57857e-13
2.13e-14
4.50637e-13
2.31966e-14
1.01182e-14
3.3062e-13
4.83744e-13
1.89983e-13
2.5888e-12
1.34983e-12
4.12861e-12
3.40801e-13
4.97629e-12
3.48675e-11
4.6447e-11
